<NUMBER OF ZONES> 22
<TOTAL OD FLOW> 0.0
<END OF METADATA>


Origin  1  
1 :      0.0;    2 :      0.000000;    
3 :      0.000000;    4 :      498.632569;    5 :      0.000000;    
6 :      0.000000;    7 :      746.179963;    8 :      0.000000;    
9 :      0.000000;    10 :      0.000000;    11 :      0.000000;    
12 :      879.941894;    13 :      782.474734;    14 :      710.756116;    
15 :      0.000000;    16 :      473.328697;    17 :      261.250856;    
18 :      0.000000;    19 :      0.000000;    20 :      0.000000;    
21 :      0.000000;    22 :      0.000000;    

Origin  2  
2 :      0.0;    1 :      0.000000;    
3 :      0.000000;    4 :      0.000000;    5 :      0.000000;    
6 :      0.000000;    7 :      0.000000;    8 :      0.000000;    
9 :      0.000000;    10 :      0.000000;    11 :      0.000000;    
12 :      0.000000;    13 :      0.000000;    14 :      0.000000;    
15 :      0.000000;    16 :      0.000000;    17 :      0.000000;    
18 :      0.000000;    19 :      0.000000;    20 :      0.000000;    
21 :      0.000000;    22 :      0.000000;    

Origin  3  
3 :      0.0;    1 :      0.000000;    
2 :      0.000000;    4 :      0.000000;    5 :      0.000000;    
6 :      0.000000;    7 :      0.000000;    8 :      0.000000;    
9 :      0.000000;    10 :      0.000000;    11 :      0.000000;    
12 :      0.000000;    13 :      0.000000;    14 :      0.000000;    
15 :      0.000000;    16 :      0.000000;    17 :      0.000000;    
18 :      0.000000;    19 :      0.000000;    20 :      0.000000;    
21 :      0.000000;    22 :      0.000000;    

Origin  4  
4 :      0.0;    1 :      596.664621;    
2 :      0.000000;    3 :      0.000000;    5 :      0.000000;    
6 :      0.000000;    7 :      252.180862;    8 :      0.000000;    
9 :      0.000000;    10 :      0.000000;    11 :      0.000000;    
12 :      1855.393535;    13 :      371.634104;    14 :      220.881555;    
15 :      0.000000;    16 :      434.909462;    17 :      230.110434;    
18 :      0.000000;    19 :      0.000000;    20 :      0.000000;    
21 :      0.000000;    22 :      0.000000;    

Origin  5  
5 :      0.0;    1 :      0.000000;    
2 :      0.000000;    3 :      0.000000;    4 :      0.000000;    
6 :      0.000000;    7 :      0.000000;    8 :      0.000000;    
9 :      0.000000;    10 :      0.000000;    11 :      0.000000;    
12 :      0.000000;    13 :      0.000000;    14 :      0.000000;    
15 :      0.000000;    16 :      0.000000;    17 :      0.000000;    
18 :      0.000000;    19 :      0.000000;    20 :      0.000000;    
21 :      0.000000;    22 :      0.000000;    

Origin  6  
6 :      0.0;    1 :      0.000000;    
2 :      0.000000;    3 :      0.000000;    4 :      0.000000;    
5 :      0.000000;    7 :      0.000000;    8 :      0.000000;    
9 :      0.000000;    10 :      0.000000;    11 :      0.000000;    
12 :      0.000000;    13 :      0.000000;    14 :      0.000000;    
15 :      0.000000;    16 :      0.000000;    17 :      0.000000;    
18 :      0.000000;    19 :      0.000000;    20 :      0.000000;    
21 :      0.000000;    22 :      0.000000;    

Origin  7  
7 :      0.0;    1 :      507.824928;    
2 :      0.000000;    3 :      0.000000;    4 :      122.786970;    
5 :      0.000000;    6 :      0.000000;    8 :      0.000000;    
9 :      0.000000;    10 :      0.000000;    11 :      0.000000;    
12 :      946.485359;    13 :      1984.601803;    14 :      1135.614559;    
15 :      0.000000;    16 :      1594.726264;    17 :      329.295505;    
18 :      0.000000;    19 :      0.000000;    20 :      0.000000;    
21 :      0.000000;    22 :      0.000000;    

Origin  8  
8 :      0.0;    1 :      0.000000;    
2 :      0.000000;    3 :      0.000000;    4 :      0.000000;    
5 :      0.000000;    6 :      0.000000;    7 :      0.000000;    
9 :      0.000000;    10 :      0.000000;    11 :      0.000000;    
12 :      0.000000;    13 :      0.000000;    14 :      0.000000;    
15 :      0.000000;    16 :      0.000000;    17 :      0.000000;    
18 :      0.000000;    19 :      0.000000;    20 :      0.000000;    
21 :      0.000000;    22 :      0.000000;    

Origin  9  
9 :      0.0;    1 :      0.000000;    
2 :      0.000000;    3 :      0.000000;    4 :      0.000000;    
5 :      0.000000;    6 :      0.000000;    7 :      0.000000;    
8 :      0.000000;    10 :      0.000000;    11 :      0.000000;    
12 :      0.000000;    13 :      0.000000;    14 :      0.000000;    
15 :      0.000000;    16 :      0.000000;    17 :      0.000000;    
18 :      0.000000;    19 :      0.000000;    20 :      0.000000;    
21 :      0.000000;    22 :      0.000000;    

Origin  10  
10 :      0.0;    1 :      0.000000;    
2 :      0.000000;    3 :      0.000000;    4 :      0.000000;    
5 :      0.000000;    6 :      0.000000;    7 :      0.000000;    
8 :      0.000000;    9 :      0.000000;    11 :      0.000000;    
12 :      0.000000;    13 :      0.000000;    14 :      0.000000;    
15 :      0.000000;    16 :      0.000000;    17 :      0.000000;    
18 :      0.000000;    19 :      0.000000;    20 :      0.000000;    
21 :      0.000000;    22 :      0.000000;    

Origin  11  
11 :      0.0;    1 :      0.000000;    
2 :      0.000000;    3 :      0.000000;    4 :      0.000000;    
5 :      0.000000;    6 :      0.000000;    7 :      0.000000;    
8 :      0.000000;    9 :      0.000000;    10 :      0.000000;    
12 :      0.000000;    13 :      0.000000;    14 :      0.000000;    
15 :      0.000000;    16 :      0.000000;    17 :      0.000000;    
18 :      0.000000;    19 :      0.000000;    20 :      0.000000;    
21 :      0.000000;    22 :      0.000000;    

Origin  12  
12 :      0.0;    1 :      708.962274;    
2 :      0.000000;    3 :      0.000000;    4 :      1482.594194;    
5 :      0.000000;    6 :      0.000000;    7 :      668.628215;    
8 :      0.000000;    9 :      0.000000;    10 :      0.000000;    
11 :      0.000000;    13 :      286.798191;    14 :      252.153350;    
15 :      0.000000;    16 :      482.865651;    17 :      1130.333252;    
18 :      0.000000;    19 :      0.000000;    20 :      0.000000;    
21 :      0.000000;    22 :      0.000000;    

Origin  13  
13 :      0.0;    1 :      580.378367;    
2 :      0.000000;    3 :      0.000000;    4 :      228.270562;    
5 :      0.000000;    6 :      0.000000;    7 :      1309.657347;    
8 :      0.000000;    9 :      0.000000;    10 :      0.000000;    
11 :      0.000000;    12 :      706.591712;    14 :      666.465782;    
15 :      0.000000;    16 :      277.640654;    17 :      92.305175;    
18 :      0.000000;    19 :      0.000000;    20 :      0.000000;    
21 :      0.000000;    22 :      0.000000;    

Origin  14  
14 :      0.0;    1 :      479.076961;    
2 :      0.000000;    3 :      0.000000;    4 :      121.347520;    
5 :      0.000000;    6 :      0.000000;    7 :      456.775071;    
8 :      0.000000;    9 :      0.000000;    10 :      0.000000;    
11 :      0.000000;    12 :      280.731297;    13 :      478.977625;    
15 :      0.000000;    16 :      2439.984815;    17 :      281.859858;    
18 :      0.000000;    19 :      0.000000;    20 :      0.000000;    
21 :      0.000000;    22 :      0.000000;    

Origin  15  
15 :      0.0;    1 :      0.000000;    
2 :      0.000000;    3 :      0.000000;    4 :      0.000000;    
5 :      0.000000;    6 :      0.000000;    7 :      0.000000;    
8 :      0.000000;    9 :      0.000000;    10 :      0.000000;    
11 :      0.000000;    12 :      0.000000;    13 :      0.000000;    
14 :      0.000000;    16 :      0.000000;    17 :      0.000000;    
18 :      0.000000;    19 :      0.000000;    20 :      0.000000;    
21 :      0.000000;    22 :      0.000000;    

Origin  16  
16 :      0.0;    1 :      556.618741;    
2 :      0.000000;    3 :      0.000000;    4 :      359.260598;    
5 :      0.000000;    6 :      0.000000;    7 :      1071.618423;    
8 :      0.000000;    9 :      0.000000;    10 :      0.000000;    
11 :      0.000000;    12 :      829.456613;    13 :      916.051824;    
14 :      3091.293802;    15 :      0.000000;    17 :      166.861014;    
18 :      0.000000;    19 :      0.000000;    20 :      0.000000;    
21 :      0.000000;    22 :      0.000000;    

Origin  17  
17 :      0.0;    1 :      424.740323;    
2 :      0.000000;    3 :      0.000000;    4 :      250.792049;    
5 :      0.000000;    6 :      0.000000;    7 :      478.843750;    
8 :      0.000000;    9 :      0.000000;    10 :      0.000000;    
11 :      0.000000;    12 :      1348.056338;    13 :      216.492485;    
14 :      512.265165;    15 :      0.000000;    16 :      318.664171;    
18 :      0.000000;    19 :      0.000000;    20 :      0.000000;    
21 :      0.000000;    22 :      0.000000;    

Origin  18  
18 :      0.0;    1 :      0.000000;    
2 :      0.000000;    3 :      0.000000;    4 :      0.000000;    
5 :      0.000000;    6 :      0.000000;    7 :      0.000000;    
8 :      0.000000;    9 :      0.000000;    10 :      0.000000;    
11 :      0.000000;    12 :      0.000000;    13 :      0.000000;    
14 :      0.000000;    15 :      0.000000;    16 :      0.000000;    
17 :      0.000000;    19 :      0.000000;    20 :      0.000000;    
21 :      0.000000;    22 :      0.000000;    

Origin  19  
19 :      0.0;    1 :      0.000000;    
2 :      0.000000;    3 :      0.000000;    4 :      0.000000;    
5 :      0.000000;    6 :      0.000000;    7 :      0.000000;    
8 :      0.000000;    9 :      0.000000;    10 :      0.000000;    
11 :      0.000000;    12 :      0.000000;    13 :      0.000000;    
14 :      0.000000;    15 :      0.000000;    16 :      0.000000;    
17 :      0.000000;    18 :      0.000000;    20 :      0.000000;    
21 :      0.000000;    22 :      0.000000;    

Origin  20  
20 :      0.0;    1 :      0.000000;    
2 :      0.000000;    3 :      0.000000;    4 :      0.000000;    
5 :      0.000000;    6 :      0.000000;    7 :      0.000000;    
8 :      0.000000;    9 :      0.000000;    10 :      0.000000;    
11 :      0.000000;    12 :      0.000000;    13 :      0.000000;    
14 :      0.000000;    15 :      0.000000;    16 :      0.000000;    
17 :      0.000000;    18 :      0.000000;    19 :      0.000000;    
21 :      0.000000;    22 :      0.000000;    

Origin  21  
21 :      0.0;    1 :      0.000000;    
2 :      0.000000;    3 :      0.000000;    4 :      0.000000;    
5 :      0.000000;    6 :      0.000000;    7 :      0.000000;    
8 :      0.000000;    9 :      0.000000;    10 :      0.000000;    
11 :      0.000000;    12 :      0.000000;    13 :      0.000000;    
14 :      0.000000;    15 :      0.000000;    16 :      0.000000;    
17 :      0.000000;    18 :      0.000000;    19 :      0.000000;    
20 :      0.000000;    22 :      0.000000;    

Origin  22  
22 :      0.0;    1 :      0.000000;    
2 :      0.000000;    3 :      0.000000;    4 :      0.000000;    
5 :      0.000000;    6 :      0.000000;    7 :      0.000000;    
8 :      0.000000;    9 :      0.000000;    10 :      0.000000;    
11 :      0.000000;    12 :      0.000000;    13 :      0.000000;    
14 :      0.000000;    15 :      0.000000;    16 :      0.000000;    
17 :      0.000000;    18 :      0.000000;    19 :      0.000000;    
20 :      0.000000;    21 :      0.000000;    

