<NUMBER OF ZONES> 8
<TOTAL OD FLOW> 0.0
<END OF METADATA>


Origin  1  
1 :      0.0;    2 :      0.000000;    
3 :      5972.489091;    4 :      0.000000;    5 :      1.759348;    
6 :      1106.880790;    7 :      0.000007;    8 :      0.000001;    


Origin  2  
2 :      0.0;    1 :      0.008307;    3 :      0.000000;    4 :      3985.409644;    
5 :      0.000000;    6 :      0.000000;    7 :      0.000000;    
8 :      0.000000;    

Origin  3  
3 :      0.0;    1 :      4668.570985;    2 :      1037.888891;    
4 :      2.728743;    5 :      1.872309;    6 :      1735.027068;    
7 :      6788.032513;    8 :      0.000007;    

Origin  4  
4 :      0.0;    1 :      1528.001698;    
2 :      2663.407317;    3 :      405.318960;    5 :      1882.704593;    
6 :      864.035115;    7 :      0.000004;    8 :      3376.327943;    


Origin  5  
5 :      0.0;    1 :      2.137239;    2 :      2.755301;    3 :      454.571216;    
4 :      4.168598;    6 :      1835.312167;    7 :      0.000004;    
8 :      0.000004;    

Origin  6  
6 :      0.0;    1 :      1719.967647;    2 :      531.629100;    
3 :      0.002199;    4 :      1896.701435;    5 :      401.981853;    
7 :      193.716162;    8 :      108.103375;    

Origin  7  
7 :      0.0;    1 :      0.000005;    
2 :      0.000005;    3 :      5785.387428;    4 :      866.268411;    
5 :      182.825741;    6 :      0.000003;    8 :      3308.097498;    


Origin  8  
8 :      0.0;    1 :      0.000005;    2 :      0.000005;    3 :      0.000005;    
4 :      3330.439278;    5 :      159.100511;    6 :      0.000003;    
7 :      3721.172980;    

