<NUMBER OF ZONES> 8
<TOTAL OD FLOW> 0.0
<END OF METADATA>


Origin  1  
1 :      0.0;    2 :      0.000000;    
3 :      3238.871645;    4 :      0.000000;    5 :      305.119842;    
6 :      1104.807694;    7 :      0.000003;    8 :      0.000000;    


Origin  2  
2 :      0.0;    1 :      0.002240;    3 :      0.000000;    4 :      2317.190422;    
5 :      0.000000;    6 :      0.000000;    7 :      0.000000;    
8 :      0.000000;    

Origin  3  
3 :      0.0;    1 :      2411.844069;    2 :      127.038256;    
4 :      22.724112;    5 :      282.839305;    6 :      1578.261807;    
7 :      2780.812879;    8 :      0.000003;    

Origin  4  
4 :      0.0;    1 :      750.027114;    
2 :      1398.274237;    3 :      467.230906;    5 :      282.057506;    
6 :      936.351725;    7 :      0.000002;    8 :      2106.354105;    


Origin  5  
5 :      0.0;    1 :      0.586813;    2 :      0.561387;    3 :      649.765304;    
4 :      1333.566481;    6 :      438.500244;    7 :      0.000002;    
8 :      0.000002;    

Origin  6  
6 :      0.0;    1 :      1630.147940;    2 :      198.883802;    
3 :      0.000160;    4 :      2.851444;    5 :      1335.849799;    
7 :      705.221214;    8 :      491.194806;    

Origin  7  
7 :      0.0;    1 :      0.000005;    
2 :      0.000005;    3 :      1990.440985;    4 :      2.304945;    
5 :      1166.702749;    6 :      0.000002;    8 :      1330.602705;    


Origin  8  
8 :      0.0;    1 :      0.000005;    2 :      0.000005;    3 :      0.000005;    
4 :      2022.804133;    5 :      811.896026;    6 :      0.000002;    
7 :      1692.647167;    

