<NUMBER OF ZONES> 22
<NUMBER OF ZONES> 22
<FIRST THRU NODE> 1
<NUMBER OF LINKS> 74
<NUMBER OF ZONES> 22
<END OF METADATA>


~  Init node  Term node  Capacity  Length  Free Flow Time  B  Power  Speed limit  Toll  Type  ;
  1  2  5770.740094  0.000000  0.161995  0.000000  0.000000  0.000000  0.000000  0.000000  ;
  2  1  5502.891969  0.000000  0.183317  0.000000  0.000000  0.000000  0.000000  0.000000  ;
  1  3  7911.813509  0.000000  0.181959  0.000000  0.000000  0.000000  0.000000  0.000000  ;
  3  1  8000.000000  0.000000  0.179745  0.000000  0.000000  0.000000  0.000000  0.000000  ;
  2  3  845.091650  0.000000  0.349410  0.000000  0.000000  0.000000  0.000000  0.000000  ;
  3  2  786.721158  0.000000  0.348965  0.000000  0.000000  0.000000  0.000000  0.000000  ;
  2  4  6000.000000  0.000000  0.109833  0.000000  0.000000  0.000000  0.000000  0.000000  ;
  4  2  6000.000000  0.000000  0.107958  0.000000  0.000000  0.000000  0.000000  0.000000  ;
  3  6  6438.424264  0.000000  0.117963  0.000000  0.000000  0.000000  0.000000  0.000000  ;
  6  3  8000.000000  0.000000  0.129940  0.000000  0.000000  0.000000  0.000000  0.000000  ;
  4  6  2228.344490  0.000000  0.282064  0.000000  0.000000  0.000000  0.000000  0.000000  ;
  6  4  1860.713486  0.000000  0.284951  0.000000  0.000000  0.000000  0.000000  0.000000  ;
  4  7  1370.934089  0.000000  0.364935  0.000000  0.000000  0.000000  0.000000  0.000000  ;
  7  4  1246.948062  0.000000  0.362124  0.000000  0.000000  0.000000  0.000000  0.000000  ;
  4  18  6988.754412  0.000000  0.063630  0.000000  0.000000  0.000000  0.000000  0.000000  ;
  18  7  6988.754412  0.000000  0.095444  0.000000  0.000000  0.000000  0.000000  0.000000  ;
  18  4  4448.251067  0.000000  0.071077  0.000000  0.000000  0.000000  0.000000  0.000000  ;
  7  18  4448.251067  0.000000  0.106616  0.000000  0.000000  0.000000  0.000000  0.000000  ;
  4  5  6000.000000  0.000000  0.043136  0.000000  0.000000  0.000000  0.000000  0.000000  ;
  5  4  6000.000000  0.000000  0.045919  0.000000  0.000000  0.000000  0.000000  0.000000  ;
  6  7  6137.908989  0.000000  0.173468  0.000000  0.000000  0.000000  0.000000  0.000000  ;
  7  6  5530.938491  0.000000  0.163501  0.000000  0.000000  0.000000  0.000000  0.000000  ;
  5  8  6379.968812  0.000000  0.177869  0.000000  0.000000  0.000000  0.000000  0.000000  ;
  8  5  6351.542558  0.000000  0.191880  0.000000  0.000000  0.000000  0.000000  0.000000  ;
  5  9  1164.029522  0.000000  0.325329  0.000000  0.000000  0.000000  0.000000  0.000000  ;
  9  5  1821.610648  0.000000  0.332162  0.000000  0.000000  0.000000  0.000000  0.000000  ;
  7  9  6696.588628  0.000000  0.068599  0.000000  0.000000  0.000000  0.000000  0.000000  ;
  9  7  7022.406674  0.000000  0.068377  0.000000  0.000000  0.000000  0.000000  0.000000  ;
  7  11  4317.863387  0.000000  0.099170  0.000000  0.000000  0.000000  0.000000  0.000000  ;
  11  7  7305.261854  0.000000  0.103701  0.000000  0.000000  0.000000  0.000000  0.000000  ;
  9  10  7374.719155  0.000000  0.101832  0.000000  0.000000  0.000000  0.000000  0.000000  ;
  10  9  6009.811055  0.000000  0.102047  0.000000  0.000000  0.000000  0.000000  0.000000  ;
  8  10  2222.513358  0.000000  0.291648  0.000000  0.000000  0.000000  0.000000  0.000000  ;
  10  8  2269.323789  0.000000  0.289254  0.000000  0.000000  0.000000  0.000000  0.000000  ;
  10  11  2934.515290  0.000000  0.211194  0.000000  0.000000  0.000000  0.000000  0.000000  ;
  11  10  2747.669928  0.000000  0.202784  0.000000  0.000000  0.000000  0.000000  0.000000  ;
  8  12  6000.000000  0.000000  0.209099  0.000000  0.000000  0.000000  0.000000  0.000000  ;
  12  8  6000.000000  0.000000  0.212578  0.000000  0.000000  0.000000  0.000000  0.000000  ;
  10  13  8000.000000  0.000000  0.066830  0.000000  0.000000  0.000000  0.000000  0.000000  ;
  13  10  8000.000000  0.000000  0.066264  0.000000  0.000000  0.000000  0.000000  0.000000  ;
  11  14  5519.975738  0.000000  0.118610  0.000000  0.000000  0.000000  0.000000  0.000000  ;
  14  11  4210.143283  0.000000  0.119511  0.000000  0.000000  0.000000  0.000000  0.000000  ;
  12  13  1115.502471  0.000000  0.467869  0.000000  0.000000  0.000000  0.000000  0.000000  ;
  13  12  918.190114  0.000000  0.474671  0.000000  0.000000  0.000000  0.000000  0.000000  ;
  12  19  6137.908989  0.000000  0.069387  0.000000  0.000000  0.000000  0.000000  0.000000  ;
  19  13  6137.908989  0.000000  0.104081  0.000000  0.000000  0.000000  0.000000  0.000000  ;
  19  12  5540.728327  0.000000  0.069605  0.000000  0.000000  0.000000  0.000000  0.000000  ;
  13  19  5540.728327  0.000000  0.104407  0.000000  0.000000  0.000000  0.000000  0.000000  ;
  12  20  2251.546038  0.000000  0.091506  0.000000  0.000000  0.000000  0.000000  0.000000  ;
  20  13  2251.546038  0.000000  0.137259  0.000000  0.000000  0.000000  0.000000  0.000000  ;
  20  12  2330.142567  0.000000  0.096101  0.000000  0.000000  0.000000  0.000000  0.000000  ;
  13  20  2330.142567  0.000000  0.144152  0.000000  0.000000  0.000000  0.000000  0.000000  ;
  13  14  5666.324310  0.000000  0.157933  0.000000  0.000000  0.000000  0.000000  0.000000  ;
  14  13  3486.528434  0.000000  0.158080  0.000000  0.000000  0.000000  0.000000  0.000000  ;
  13  21  1671.292530  0.000000  0.104414  0.000000  0.000000  0.000000  0.000000  0.000000  ;
  21  14  1671.292530  0.000000  0.156622  0.000000  0.000000  0.000000  0.000000  0.000000  ;
  21  13  2068.636909  0.000000  0.103075  0.000000  0.000000  0.000000  0.000000  0.000000  ;
  14  21  2068.636909  0.000000  0.154612  0.000000  0.000000  0.000000  0.000000  0.000000  ;
  12  15  5471.535226  0.000000  0.131017  0.000000  0.000000  0.000000  0.000000  0.000000  ;
  15  12  6000.000000  0.000000  0.130002  0.000000  0.000000  0.000000  0.000000  0.000000  ;
  13  15  849.352290  0.000000  0.414111  0.000000  0.000000  0.000000  0.000000  0.000000  ;
  15  13  748.211891  0.000000  0.465782  0.000000  0.000000  0.000000  0.000000  0.000000  ;
  13  16  6242.577967  0.000000  0.158994  0.000000  0.000000  0.000000  0.000000  0.000000  ;
  16  13  6695.591725  0.000000  0.169855  0.000000  0.000000  0.000000  0.000000  0.000000  ;
  14  16  2249.175570  0.000000  0.376906  0.000000  0.000000  0.000000  0.000000  0.000000  ;
  16  14  1790.182665  0.000000  0.384494  0.000000  0.000000  0.000000  0.000000  0.000000  ;
  14  22  5826.794762  0.000000  0.079154  0.000000  0.000000  0.000000  0.000000  0.000000  ;
  22  16  5826.794762  0.000000  0.118731  0.000000  0.000000  0.000000  0.000000  0.000000  ;
  22  14  4285.787570  0.000000  0.079134  0.000000  0.000000  0.000000  0.000000  0.000000  ;
  16  22  4285.787570  0.000000  0.118701  0.000000  0.000000  0.000000  0.000000  0.000000  ;
  15  17  5726.051257  0.000000  0.245197  0.000000  0.000000  0.000000  0.000000  0.000000  ;
  17  15  5941.509547  0.000000  0.243392  0.000000  0.000000  0.000000  0.000000  0.000000  ;
  16  17  6000.000000  0.000000  0.194284  0.000000  0.000000  0.000000  0.000000  0.000000  ;
  17  16  5877.602649  0.000000  0.208304  0.000000  0.000000  0.000000  0.000000  0.000000  ;
