<NUMBER OF ZONES> 8
<TOTAL OD FLOW> 0.0
<END OF METADATA>


Origin  1  
1 :      0.0;    2 :      0.000000;    
3 :      13320.875574;    4 :      0.000000;    5 :      1472.774065;    
6 :      2849.964699;    7 :      0.000037;    8 :      0.000001;    


Origin  2  
2 :      0.0;    1 :      0.013919;    3 :      1940.386799;    4 :      11744.261204;    
5 :      855.898273;    6 :      922.197943;    7 :      0.000037;    
8 :      0.000037;    

Origin  3  
3 :      0.0;    1 :      12535.290636;    2 :      6036.496277;    
4 :      65.811675;    5 :      1641.956499;    6 :      3192.307911;    
7 :      18902.169534;    8 :      0.000037;    

Origin  4  
4 :      0.0;    1 :      4219.794970;    
2 :      6188.586593;    3 :      1912.272187;    5 :      4189.662430;    
6 :      2647.852826;    7 :      0.000021;    8 :      10623.328443;    


Origin  5  
5 :      0.0;    1 :      4.077923;    2 :      3.846769;    3 :      4286.402951;    
4 :      7991.473951;    6 :      7578.288687;    7 :      0.000021;    
8 :      0.000021;    

Origin  6  
6 :      0.0;    1 :      5275.660685;    2 :      3213.065130;    
3 :      0.000339;    4 :      9.965188;    5 :      8045.941462;    
7 :      1936.171511;    8 :      1790.695712;    

Origin  7  
7 :      0.0;    1 :      0.000006;    
2 :      0.000006;    3 :      19640.796808;    4 :      44.257513;    
5 :      1521.103129;    6 :      0.000003;    8 :      7865.976125;    


Origin  8  
8 :      0.0;    1 :      0.000006;    2 :      0.000006;    3 :      0.000006;    
4 :      10070.544539;    5 :      1268.280492;    6 :      0.000003;    
7 :      11198.491882;    

