<NUMBER OF ZONES> 8
<TOTAL OD FLOW> 0.0
<END OF METADATA>


Origin  1  
1 :      0.0;    2 :      0.000000;    
3 :      1116.318775;    4 :      0.000000;    5 :      782.548905;    
6 :      328.746637;    7 :      3.421207;    8 :      0.000000;    


Origin  2  
2 :      0.0;    1 :      0.000012;    3 :      0.000000;    4 :      1179.369583;    
5 :      0.000000;    6 :      0.000000;    7 :      0.000000;    
8 :      0.000000;    

Origin  3  
3 :      0.0;    1 :      1833.975543;    2 :      189.511247;    
4 :      0.008778;    5 :      776.135799;    6 :      738.470504;    
7 :      3.135282;    8 :      0.168922;    

Origin  4  
4 :      0.0;    1 :      582.958329;    
2 :      695.038347;    3 :      132.927058;    5 :      663.378222;    
6 :      287.879461;    7 :      2.412883;    8 :      1219.927880;    


Origin  5  
5 :      0.0;    1 :      0.011548;    2 :      0.034064;    3 :      0.018365;    
4 :      906.410542;    6 :      768.766631;    7 :      904.447986;    
8 :      1187.926393;    

Origin  6  
6 :      0.0;    1 :      0.000001;    2 :      0.000001;    
3 :      0.000001;    4 :      0.010562;    5 :      732.104394;    
7 :      930.060225;    8 :      0.077144;    

Origin  7  
7 :      0.0;    1 :      0.045032;    
2 :      454.420384;    3 :      0.098031;    4 :      0.008703;    
5 :      592.745299;    6 :      12.422743;    8 :      0.069805;    


Origin  8  
8 :      0.0;    1 :      0.001777;    2 :      0.004052;    3 :      1263.676120;    
4 :      1272.417567;    5 :      0.002362;    6 :      0.002279;    
7 :      0.004192;    

