<NUMBER OF ZONES> 8
<TOTAL OD FLOW> 0.0
<END OF METADATA>


Origin  1  
1 :      0.0;    2 :      0.000000;    
3 :      3563.854536;    4 :      0.000000;    5 :      3713.613425;    
6 :      1428.739710;    7 :      0.000027;    8 :      0.000001;    


Origin  2  
2 :      0.0;    1 :      0.000449;    3 :      963.072062;    4 :      4120.657316;    
5 :      1384.348014;    6 :      886.203350;    7 :      0.000027;    
8 :      0.000027;    

Origin  3  
3 :      0.0;    1 :      5854.874981;    2 :      2335.487789;    
4 :      6.957504;    5 :      1315.377129;    6 :      5825.226140;    
7 :      8195.048829;    8 :      0.000027;    

Origin  4  
4 :      0.0;    1 :      1480.707463;    
2 :      2534.220320;    3 :      175.843108;    5 :      27.067895;    
6 :      3102.262028;    7 :      0.000015;    8 :      2756.996884;    


Origin  5  
5 :      0.0;    1 :      1.397227;    2 :      2.037795;    3 :      54.970431;    
4 :      7294.720088;    6 :      3421.809044;    7 :      0.000015;    
8 :      0.000015;    

Origin  6  
6 :      0.0;    1 :      0.000002;    2 :      0.000002;    
3 :      0.000002;    4 :      5.704298;    5 :      5889.286264;    
7 :      5572.989202;    8 :      1357.063968;    

Origin  7  
7 :      0.0;    1 :      0.000004;    
2 :      0.000004;    3 :      15238.082741;    4 :      13.756447;    
5 :      1326.534892;    6 :      1296.379008;    8 :      2109.343836;    


Origin  8  
8 :      0.0;    1 :      0.000004;    2 :      0.000004;    3 :      0.000004;    
4 :      2988.669395;    5 :      1138.932271;    6 :      1158.120201;    
7 :      2828.126499;    

