<NUMBER OF ZONES> 8
<TOTAL OD FLOW> 0.0
<END OF METADATA>


Origin  1  
1 :      0.0;    2 :      0.000000;    
3 :      3088.605671;    4 :      0.000000;    5 :      0.001646;    
6 :      2731.939610;    7 :      0.002731;    8 :      0.000000;    


Origin  2  
2 :      0.0;    1 :      0.000014;    3 :      0.000000;    4 :      2526.622417;    
5 :      0.000000;    6 :      0.000000;    7 :      0.000000;    
8 :      0.000000;    

Origin  3  
3 :      0.0;    1 :      3695.384924;    2 :      1777.879192;    
4 :      0.027952;    5 :      3049.217479;    6 :      0.001114;    
7 :      0.002731;    8 :      0.002729;    

Origin  4  
4 :      0.0;    1 :      1460.010459;    
2 :      1161.025383;    3 :      0.013711;    5 :      0.277368;    
6 :      0.171175;    7 :      2121.382337;    8 :      2353.596482;    


Origin  5  
5 :      0.0;    1 :      0.006176;    2 :      0.006022;    3 :      370.068116;    
4 :      2413.191848;    6 :      2276.871756;    7 :      50.188476;    
8 :      29.798738;    

Origin  6  
6 :      0.0;    1 :      0.000001;    2 :      0.000001;    
3 :      0.000001;    4 :      0.032483;    5 :      1841.708317;    
7 :      1824.294527;    8 :      935.873656;    

Origin  7  
7 :      0.0;    1 :      0.725012;    
2 :      5.722175;    3 :      2826.700141;    4 :      0.027852;    
5 :      140.572818;    6 :      49.967150;    8 :      1386.234959;    


Origin  8  
8 :      0.0;    1 :      0.002165;    2 :      0.006854;    3 :      2350.430616;    
4 :      2373.821136;    5 :      0.002083;    6 :      0.004457;    
7 :      0.004493;    

