<NUMBER OF ZONES> 22
<TOTAL OD FLOW> 0.0
<END OF METADATA>


Origin  1  
1 :      0.0;    2 :      108.218072;    
3 :      531.044388;    4 :      7.699562;    5 :      0.000000;    
6 :      470.498646;    7 :      76.384797;    8 :      0.000000;    
9 :      5.111952;    10 :      23.991667;    11 :      39.204353;    
12 :      44.532856;    13 :      50.145024;    14 :      77.620571;    
15 :      13.901651;    16 :      0.000000;    17 :      198.677762;    
18 :      0.000000;    19 :      0.000000;    20 :      0.000000;    
21 :      0.000000;    22 :      0.000000;    

Origin  2  
2 :      0.0;    1 :      158.289132;    
3 :      231.797940;    4 :      0.000000;    5 :      0.000000;    
6 :      0.000000;    7 :      0.000000;    8 :      0.000000;    
9 :      0.000000;    10 :      0.000000;    11 :      0.000000;    
12 :      0.000000;    13 :      0.000000;    14 :      0.000000;    
15 :      0.000000;    16 :      0.000000;    17 :      0.000000;    
18 :      0.000000;    19 :      0.000000;    20 :      0.000000;    
21 :      0.000000;    22 :      0.000000;    

Origin  3  
3 :      0.0;    1 :      0.000000;    
2 :      0.000000;    4 :      0.000000;    5 :      0.000000;    
6 :      0.000000;    7 :      0.000000;    8 :      0.000000;    
9 :      0.000000;    10 :      0.000000;    11 :      0.000000;    
12 :      0.000000;    13 :      18.444067;    14 :      0.000000;    
15 :      0.000000;    16 :      12.264431;    17 :      0.000000;    
18 :      0.000000;    19 :      0.000000;    20 :      0.000000;    
21 :      0.000000;    22 :      0.000000;    

Origin  4  
4 :      0.0;    1 :      0.000000;    
2 :      0.000000;    3 :      20.541356;    5 :      0.000000;    
6 :      48.402882;    7 :      68.687915;    8 :      0.000000;    
9 :      0.000000;    10 :      16.289479;    11 :      31.504292;    
12 :      36.842430;    13 :      42.446947;    14 :      69.921156;    
15 :      6.200615;    16 :      0.000000;    17 :      0.000000;    
18 :      0.000000;    19 :      0.000000;    20 :      0.000000;    
21 :      0.000000;    22 :      0.000000;    

Origin  5  
5 :      0.0;    1 :      0.000000;    
2 :      0.000000;    3 :      0.000000;    4 :      0.000000;    
6 :      8.353491;    7 :      28.638525;    8 :      0.000000;    
9 :      31.267502;    10 :      50.139997;    11 :      0.000000;    
12 :      70.692948;    13 :      76.297464;    14 :      29.871766;    
15 :      40.053232;    16 :      4.264274;    17 :      0.000000;    
18 :      0.000000;    19 :      0.000000;    20 :      0.000000;    
21 :      0.000000;    22 :      0.000000;    

Origin  6  
6 :      0.0;    1 :      0.000000;    
2 :      0.000000;    3 :      107.148362;    4 :      95.556130;    
5 :      61.705612;    7 :      3.892502;    8 :      54.960263;    
9 :      33.959264;    10 :      52.831759;    11 :      0.000000;    
12 :      21.701450;    13 :      78.989225;    14 :      5.125743;    
15 :      38.986693;    16 :      72.809590;    17 :      0.000000;    
18 :      0.000000;    19 :      0.000000;    20 :      0.000000;    
21 :      0.000000;    22 :      0.000000;    

Origin  7  
7 :      0.0;    1 :      0.000000;    
2 :      0.000000;    3 :      52.401257;    4 :      33.747384;    
5 :      0.000014;    6 :      0.000000;    8 :      68.665201;    
9 :      30.066762;    10 :      48.939257;    11 :      0.000000;    
12 :      17.808929;    13 :      75.096724;    14 :      1.233241;    
15 :      35.092034;    16 :      68.917088;    17 :      0.000000;    
18 :      0.000000;    19 :      0.000000;    20 :      0.000000;    
21 :      0.000000;    22 :      0.000000;    

Origin  8  
8 :      0.0;    1 :      0.000000;    
2 :      0.000000;    3 :      22.330086;    4 :      1.788730;    
5 :      41.838119;    6 :      50.191611;    7 :      37.691849;    
9 :      0.000000;    10 :      0.000000;    11 :      106.452187;    
12 :      77.438297;    13 :      2.914684;    14 :      84.269908;    
15 :      46.792808;    16 :      0.000000;    17 :      85.788551;    
18 :      0.000000;    19 :      0.000000;    20 :      0.000000;    
21 :      0.000000;    22 :      0.000000;    

Origin  9  
9 :      0.0;    1 :      0.000000;    
2 :      0.000000;    3 :      109.075800;    4 :      0.000000;    
5 :      3.795058;    6 :      1.927438;    7 :      56.674543;    
8 :      38.598439;    10 :      18.872495;    11 :      19.490921;    
12 :      0.000000;    13 :      45.029962;    14 :      57.907784;    
15 :      5.026768;    16 :      0.000000;    17 :      0.000000;    
18 :      0.000000;    19 :      0.000000;    20 :      0.000000;    
21 :      0.000000;    22 :      0.000000;    

Origin  10  
10 :      0.0;    1 :      0.000000;    
2 :      0.000000;    3 :      113.335888;    4 :      0.000000;    
5 :      8.055146;    6 :      6.187526;    7 :      60.934632;    
8 :      19.725945;    9 :      4.260088;    11 :      129.694970;    
12 :      0.000000;    13 :      26.157467;    14 :      107.512711;    
15 :      0.000000;    16 :      0.000000;    17 :      0.000000;    
18 :      0.000000;    19 :      0.000000;    20 :      0.000000;    
21 :      0.000000;    22 :      0.000000;    

Origin  11  
11 :      0.0;    1 :      0.000000;    
2 :      0.000000;    3 :      34.160542;    4 :      15.506669;    
5 :      0.000000;    6 :      0.000000;    7 :      0.000000;    
8 :      126.276974;    9 :      11.826048;    10 :      106.551030;    
12 :      75.420724;    13 :      132.708496;    14 :      38.416864;    
15 :      92.707119;    16 :      106.100710;    17 :      0.000000;    
18 :      0.000000;    19 :      0.000000;    20 :      0.000000;    
21 :      0.000000;    22 :      0.000000;    

Origin  12  
12 :      0.0;    1 :      15.368287;    
2 :      0.000000;    3 :      52.455771;    4 :      68.342440;    
5 :      108.391830;    6 :      0.000000;    7 :      0.054208;    
8 :      66.553710;    9 :      0.000000;    10 :      0.000000;    
11 :      68.814965;    13 :      0.000000;    14 :      12.975385;    
15 :      0.000000;    16 :      0.000000;    17 :      8.355319;    
18 :      0.000000;    19 :      0.000000;    20 :      0.000000;    
21 :      0.000000;    22 :      0.000000;    

Origin  13  
13 :      0.0;    1 :      0.000000;    
2 :      0.000000;    3 :      120.833872;    4 :      0.000000;    
5 :      15.555931;    6 :      13.681136;    7 :      68.433467;    
8 :      27.224083;    9 :      11.759216;    10 :      7.494640;    
11 :      137.192441;    12 :      0.000000;    14 :      81.355234;    
15 :      0.000000;    16 :      0.000000;    17 :      0.000000;    
18 :      0.000000;    19 :      0.000000;    20 :      0.000000;    
21 :      0.000000;    22 :      0.000000;    

Origin  14  
14 :      0.0;    1 :      23.545189;    
2 :      0.000000;    3 :      95.168838;    4 :      76.514963;    
5 :      42.664447;    6 :      0.000000;    7 :      42.767580;    
8 :      48.134152;    9 :      72.834343;    10 :      28.407804;    
11 :      61.008295;    12 :      0.000000;    13 :      20.912757;    
15 :      0.000000;    16 :      67.683846;    17 :      0.000000;    
18 :      0.000000;    19 :      0.000000;    20 :      0.000000;    
21 :      0.000000;    22 :      0.000000;    

Origin  15  
15 :      0.0;    1 :      0.000000;    
2 :      0.000000;    3 :      57.032290;    4 :      36.684650;    
5 :      76.734040;    6 :      0.000000;    7 :      4.637970;    
8 :      34.895921;    9 :      0.000000;    10 :      0.000000;    
11 :      73.393283;    12 :      0.000000;    13 :      0.000000;    
14 :      17.556754;    16 :      0.000000;    17 :      38.992326;    
18 :      0.000000;    19 :      0.000000;    20 :      0.000000;    
21 :      0.000000;    22 :      0.000000;    

Origin  16  
16 :      0.0;    1 :      0.000000;    
2 :      0.000000;    3 :      70.008409;    4 :      6.432771;    
5 :      46.479063;    6 :      0.000000;    7 :      17.607152;    
8 :      58.147804;    9 :      42.682987;    10 :      38.423935;    
11 :      35.847867;    12 :      0.000000;    13 :      30.927875;    
14 :      0.000000;    15 :      0.000000;    17 :      0.000000;    
18 :      0.000000;    19 :      0.000000;    20 :      0.000000;    
21 :      0.000000;    22 :      0.000000;    

Origin  17  
17 :      0.0;    1 :      0.982704;    
2 :      0.000000;    3 :      72.605069;    4 :      9.028596;    
5 :      49.074310;    6 :      0.000000;    7 :      20.203813;    
8 :      26.461349;    9 :      45.280903;    10 :      41.019578;    
11 :      38.444527;    12 :      0.000000;    13 :      33.524536;    
14 :      0.000000;    15 :      0.000000;    16 :      2.596660;    
18 :      0.000000;    19 :      0.000000;    20 :      0.000000;    
21 :      0.000000;    22 :      0.000000;    

Origin  18  
18 :      0.0;    1 :      0.000000;    
2 :      0.000000;    3 :      0.000000;    4 :      0.000000;    
5 :      0.000000;    6 :      0.000000;    7 :      0.000000;    
8 :      0.000000;    9 :      0.000000;    10 :      0.000000;    
11 :      0.000000;    12 :      0.000000;    13 :      0.000000;    
14 :      0.000000;    15 :      0.000000;    16 :      0.000000;    
17 :      0.000000;    19 :      0.000000;    20 :      0.000000;    
21 :      0.000000;    22 :      0.000000;    

Origin  19  
19 :      0.0;    1 :      0.000000;    
2 :      0.000000;    3 :      0.000000;    4 :      0.000000;    
5 :      0.000000;    6 :      0.000000;    7 :      0.000000;    
8 :      0.000000;    9 :      0.000000;    10 :      0.000000;    
11 :      0.000000;    12 :      0.000000;    13 :      0.000000;    
14 :      0.000000;    15 :      0.000000;    16 :      0.000000;    
17 :      0.000000;    18 :      0.000000;    20 :      0.000000;    
21 :      0.000000;    22 :      0.000000;    

Origin  20  
20 :      0.0;    1 :      0.000000;    
2 :      0.000000;    3 :      0.000000;    4 :      0.000000;    
5 :      0.000000;    6 :      0.000000;    7 :      0.000000;    
8 :      0.000000;    9 :      0.000000;    10 :      0.000000;    
11 :      0.000000;    12 :      0.000000;    13 :      0.000000;    
14 :      0.000000;    15 :      0.000000;    16 :      0.000000;    
17 :      0.000000;    18 :      0.000000;    19 :      0.000000;    
21 :      0.000000;    22 :      0.000000;    

Origin  21  
21 :      0.0;    1 :      0.000000;    
2 :      0.000000;    3 :      0.000000;    4 :      0.000000;    
5 :      0.000000;    6 :      0.000000;    7 :      0.000000;    
8 :      0.000000;    9 :      0.000000;    10 :      0.000000;    
11 :      0.000000;    12 :      0.000000;    13 :      0.000000;    
14 :      0.000000;    15 :      0.000000;    16 :      0.000000;    
17 :      0.000000;    18 :      0.000000;    19 :      0.000000;    
20 :      0.000000;    22 :      0.000000;    

Origin  22  
22 :      0.0;    1 :      0.000000;    
2 :      0.000000;    3 :      0.000000;    4 :      0.000000;    
5 :      0.000000;    6 :      0.000000;    7 :      0.000000;    
8 :      0.000000;    9 :      0.000000;    10 :      0.000000;    
11 :      0.000000;    12 :      0.000000;    13 :      0.000000;    
14 :      0.000000;    15 :      0.000000;    16 :      0.000000;    
17 :      0.000000;    18 :      0.000000;    19 :      0.000000;    
20 :      0.000000;    21 :      0.000000;    

