<NUMBER OF ZONES> 8
<NUMBER OF ZONES> 8
<FIRST THRU NODE> 1
<NUMBER OF LINKS> 24
<NUMBER OF ZONES> 8
<END OF METADATA>


~  Init node  Term node  Capacity  Length  Free Flow Time  B  Power  Speed limit  Toll  Type  ;
  1  2  41158.874182  0.000000  0.309077  0.000000  0.000000  0.000000  0.000000  0.000000  ;
  2  1  40058.749869  0.000000  0.328601  0.000000  0.000000  0.000000  0.000000  0.000000  ;
  1  3  50721.556622  0.000000  0.455004  0.000000  0.000000  0.000000  0.000000  0.000000  ;
  3  1  51394.626904  0.000000  0.463031  0.000000  0.000000  0.000000  0.000000  0.000000  ;
  2  3  50774.482299  0.000000  0.141994  0.000000  0.000000  0.000000  0.000000  0.000000  ;
  3  2  48149.343862  0.000000  0.169591  0.000000  0.000000  0.000000  0.000000  0.000000  ;
  2  4  43023.428631  0.000000  0.532474  0.000000  0.000000  0.000000  0.000000  0.000000  ;
  4  2  42992.013431  0.000000  0.551125  0.000000  0.000000  0.000000  0.000000  0.000000  ;
  3  5  55839.536163  0.000000  0.241228  0.000000  0.000000  0.000000  0.000000  0.000000  ;
  5  3  54868.885291  0.000000  0.250947  0.000000  0.000000  0.000000  0.000000  0.000000  ;
  3  6  52980.404195  0.000000  0.198582  0.000000  0.000000  0.000000  0.000000  0.000000  ;
  6  3  45888.444745  0.000000  0.205095  0.000000  0.000000  0.000000  0.000000  0.000000  ;
  4  5  40285.001297  0.000000  0.239197  0.000000  0.000000  0.000000  0.000000  0.000000  ;
  5  4  44831.324230  0.000000  0.246538  0.000000  0.000000  0.000000  0.000000  0.000000  ;
  5  6  41482.754860  0.000000  0.174600  0.000000  0.000000  0.000000  0.000000  0.000000  ;
  6  5  33333.888918  0.000000  0.173098  0.000000  0.000000  0.000000  0.000000  0.000000  ;
  4  8  42000.000000  0.000000  0.342531  0.000000  0.000000  0.000000  0.000000  0.000000  ;
  8  4  42000.000000  0.000000  0.343678  0.000000  0.000000  0.000000  0.000000  0.000000  ;
  5  7  45337.182371  0.000000  0.189028  0.000000  0.000000  0.000000  0.000000  0.000000  ;
  7  5  45714.510114  0.000000  0.187959  0.000000  0.000000  0.000000  0.000000  0.000000  ;
  6  7  46939.311607  0.000000  0.259832  0.000000  0.000000  0.000000  0.000000  0.000000  ;
  7  6  45171.175682  0.000000  0.259502  0.000000  0.000000  0.000000  0.000000  0.000000  ;
  7  8  42000.000000  0.000000  0.194284  0.000000  0.000000  0.000000  0.000000  0.000000  ;
  8  7  42000.000000  0.000000  0.201222  0.000000  0.000000  0.000000  0.000000  0.000000  ;
