<NUMBER OF ZONES> 8
<NUMBER OF ZONES> 8
<FIRST THRU NODE> 1
<NUMBER OF LINKS> 24
<NUMBER OF ZONES> 8
<END OF METADATA>


~  Init node  Term node  Capacity  Length  Free Flow Time  B  Power  Speed limit  Toll  Type  ;
  1  2  1470.142942  0.000000  0.223769  0.000000  0.000000  0.000000  0.000000  0.000000  ;
  2  1  1431.179622  0.000000  0.239099  0.000000  0.000000  0.000000  0.000000  0.000000  ;
  1  3  1814.797865  0.000000  0.335607  0.000000  0.000000  0.000000  0.000000  0.000000  ;
  3  1  1838.484646  0.000000  0.342556  0.000000  0.000000  0.000000  0.000000  0.000000  ;
  2  3  1813.573913  0.000000  0.104100  0.000000  0.000000  0.000000  0.000000  0.000000  ;
  3  2  1842.587834  0.000000  0.123493  0.000000  0.000000  0.000000  0.000000  0.000000  ;
  2  4  1538.777991  0.000000  0.393796  0.000000  0.000000  0.000000  0.000000  0.000000  ;
  4  2  1536.402107  0.000000  0.405647  0.000000  0.000000  0.000000  0.000000  0.000000  ;
  3  5  1994.124309  0.000000  0.176085  0.000000  0.000000  0.000000  0.000000  0.000000  ;
  5  3  1958.684727  0.000000  0.182724  0.000000  0.000000  0.000000  0.000000  0.000000  ;
  3  6  1881.409214  0.000000  0.168402  0.000000  0.000000  0.000000  0.000000  0.000000  ;
  6  3  1626.280215  0.000000  0.179259  0.000000  0.000000  0.000000  0.000000  0.000000  ;
  4  5  1438.129890  0.000000  0.177555  0.000000  0.000000  0.000000  0.000000  0.000000  ;
  5  4  1597.641371  0.000000  0.181332  0.000000  0.000000  0.000000  0.000000  0.000000  ;
  5  6  1481.650389  0.000000  0.126612  0.000000  0.000000  0.000000  0.000000  0.000000  ;
  6  5  1193.668439  0.000000  0.125992  0.000000  0.000000  0.000000  0.000000  0.000000  ;
  4  8  1500.000000  0.000000  0.251184  0.000000  0.000000  0.000000  0.000000  0.000000  ;
  8  4  1500.000000  0.000000  0.250322  0.000000  0.000000  0.000000  0.000000  0.000000  ;
  5  7  1810.798398  0.000000  0.136876  0.000000  0.000000  0.000000  0.000000  0.000000  ;
  7  5  1822.922257  0.000000  0.136113  0.000000  0.000000  0.000000  0.000000  0.000000  ;
  6  7  1731.394574  0.000000  0.186022  0.000000  0.000000  0.000000  0.000000  0.000000  ;
  7  6  1672.845431  0.000000  0.184270  0.000000  0.000000  0.000000  0.000000  0.000000  ;
  7  8  1500.000000  0.000000  0.143381  0.000000  0.000000  0.000000  0.000000  0.000000  ;
  8  7  1500.000000  0.000000  0.147352  0.000000  0.000000  0.000000  0.000000  0.000000  ;
