<NUMBER OF ZONES> 22
<TOTAL OD FLOW> 0.0
<END OF METADATA>


Origin  1  
1 :      0.0;    2 :      31.081978;    
3 :      384.336652;    4 :      18.378457;    5 :      0.000000;    
6 :      412.404902;    7 :      39.574476;    8 :      0.000000;    
9 :      51.001131;    10 :      28.430260;    11 :      0.000000;    
12 :      8.244677;    13 :      0.000000;    14 :      53.999768;    
15 :      9.331273;    16 :      0.000000;    17 :      272.188274;    
18 :      0.000000;    19 :      0.000000;    20 :      0.000000;    
21 :      0.000000;    22 :      0.000000;    

Origin  2  
2 :      0.0;    1 :      0.000000;    
3 :      114.950947;    4 :      0.000000;    5 :      0.000000;    
6 :      81.805776;    7 :      8.491694;    8 :      0.000000;    
9 :      19.919185;    10 :      0.000000;    11 :      0.000000;    
12 :      0.000000;    13 :      0.000000;    14 :      22.916984;    
15 :      0.000000;    16 :      0.000000;    17 :      0.000000;    
18 :      0.000000;    19 :      0.000000;    20 :      0.000000;    
21 :      0.000000;    22 :      0.000000;    

Origin  3  
3 :      0.0;    1 :      0.000000;    
2 :      0.000000;    4 :      0.000000;    5 :      0.000000;    
6 :      28.068251;    7 :      36.871196;    8 :      0.000000;    
9 :      3.177537;    10 :      0.000000;    11 :      0.000000;    
12 :      0.000000;    13 :      0.000000;    14 :      51.296486;    
15 :      0.000000;    16 :      0.000000;    17 :      0.000000;    
18 :      0.000000;    19 :      0.000000;    20 :      0.000000;    
21 :      0.000000;    22 :      0.000000;    

Origin  4  
4 :      0.0;    1 :      0.000000;    
2 :      0.000000;    3 :      53.948004;    5 :      0.000000;    
6 :      94.509262;    7 :      21.196221;    8 :      0.000000;    
9 :      32.622671;    10 :      10.051803;    11 :      0.000000;    
12 :      0.000000;    13 :      0.000000;    14 :      35.621511;    
15 :      0.000000;    16 :      0.000000;    17 :      0.000000;    
18 :      0.000000;    19 :      0.000000;    20 :      0.000000;    
21 :      0.000000;    22 :      0.000000;    

Origin  5  
5 :      0.0;    1 :      0.000000;    
2 :      0.000000;    3 :      19.449080;    4 :      0.000000;    
6 :      60.010337;    7 :      0.000000;    8 :      0.000000;    
9 :      85.707992;    10 :      63.137124;    11 :      0.000000;    
12 :      42.951540;    13 :      0.000000;    14 :      1.122587;    
15 :      44.038103;    16 :      0.000000;    17 :      30.068189;    
18 :      0.000000;    19 :      0.000000;    20 :      0.000000;    
21 :      0.000000;    22 :      0.000000;    

Origin  6  
6 :      0.0;    1 :      79.891206;    
2 :      95.552847;    3 :      208.018883;    4 :      156.555791;    
5 :      103.470470;    7 :      8.802945;    8 :      49.179152;    
9 :      0.000000;    10 :      0.000000;    11 :      0.000000;    
12 :      0.000000;    13 :      0.000000;    14 :      23.228235;    
15 :      0.000000;    16 :      0.000000;    17 :      0.000000;    
18 :      0.000000;    19 :      0.000000;    20 :      0.000000;    
21 :      0.000000;    22 :      0.000000;    

Origin  7  
7 :      0.0;    1 :      0.000003;    
2 :      1.556153;    3 :      55.553290;    4 :      62.559097;    
5 :      9.473776;    6 :      0.000000;    8 :      9.998533;    
9 :      0.000000;    10 :      0.000000;    11 :      0.000000;    
12 :      0.000000;    13 :      0.000000;    14 :      14.425289;    
15 :      0.000000;    16 :      0.000000;    17 :      0.000000;    
18 :      0.000000;    19 :      0.000000;    20 :      0.000000;    
21 :      0.000000;    22 :      0.000000;    

Origin  8  
8 :      0.0;    1 :      0.000000;    
2 :      0.000000;    3 :      24.290832;    4 :      0.000000;    
5 :      4.841752;    6 :      64.852090;    7 :      31.856068;    
9 :      31.565873;    10 :      44.821964;    11 :      186.161726;    
12 :      97.242857;    13 :      0.000000;    14 :      0.000000;    
15 :      98.329420;    16 :      0.000000;    17 :      182.800671;    
18 :      0.000000;    19 :      0.000000;    20 :      0.000000;    
21 :      0.000000;    22 :      0.000000;    

Origin  9  
9 :      0.0;    1 :      0.000000;    
2 :      0.000000;    3 :      55.843486;    4 :      39.628825;    
5 :      74.127749;    6 :      0.000000;    7 :      0.290203;    
8 :      43.692192;    10 :      0.000000;    11 :      0.000000;    
12 :      0.000000;    13 :      0.000000;    14 :      14.715485;    
15 :      0.000000;    16 :      0.000000;    17 :      0.000000;    
18 :      0.000000;    19 :      0.000000;    20 :      0.000000;    
21 :      0.000000;    22 :      0.000000;    

Origin  10  
10 :      0.0;    1 :      0.000000;    
2 :      0.000000;    3 :      42.587394;    4 :      26.372733;    
5 :      60.871658;    6 :      0.000000;    7 :      0.000000;    
8 :      66.263060;    9 :      0.000000;    11 :      141.339762;    
12 :      0.000000;    13 :      0.000000;    14 :      0.000000;    
15 :      0.000000;    16 :      0.000000;    17 :      0.000000;    
18 :      0.000000;    19 :      0.000000;    20 :      0.000000;    
21 :      0.000000;    22 :      0.000000;    

Origin  11  
11 :      0.0;    1 :      0.000000;    
2 :      0.000000;    3 :      0.000000;    4 :      0.000000;    
5 :      0.000000;    6 :      0.000000;    7 :      0.000000;    
8 :      277.348785;    9 :      0.000000;    10 :      211.085725;    
12 :      57.340441;    13 :      70.966397;    14 :      118.622786;    
15 :      81.619700;    16 :      0.000000;    17 :      0.000000;    
18 :      0.000000;    19 :      0.000000;    20 :      0.000000;    
21 :      0.000000;    22 :      0.000000;    

Origin  12  
12 :      0.0;    1 :      0.000000;    
2 :      0.000000;    3 :      0.000000;    4 :      26.381551;    
5 :      60.880476;    6 :      0.000000;    7 :      0.000000;    
8 :      56.038724;    9 :      0.000000;    10 :      0.000000;    
11 :      58.656808;    13 :      17.605420;    14 :      50.048427;    
15 :      1.086563;    16 :      75.334675;    17 :      85.557814;    
18 :      0.000000;    19 :      0.000000;    20 :      0.000000;    
21 :      0.000000;    22 :      0.000000;    

Origin  13  
13 :      0.0;    1 :      0.000000;    
2 :      0.000000;    3 :      0.000000;    4 :      0.000000;    
5 :      0.000000;    6 :      0.000000;    7 :      0.000000;    
8 :      0.000000;    9 :      0.000000;    10 :      0.000000;    
11 :      41.050929;    12 :      0.000000;    14 :      32.443351;    
15 :      0.000000;    16 :      57.729397;    17 :      107.050393;    
18 :      0.000000;    19 :      0.000000;    20 :      0.000000;    
21 :      0.000000;    22 :      0.000000;    

Origin  14  
14 :      0.0;    1 :      16.305179;    
2 :      18.327279;    3 :      72.324416;    4 :      79.330222;    
5 :      26.244902;    6 :      0.000000;    7 :      16.771126;    
8 :      30.526463;    9 :      0.000000;    10 :      0.000000;    
11 :      87.355579;    12 :      50.926662;    13 :      64.552345;    
15 :      75.205498;    16 :      0.000000;    17 :      0.000000;    
18 :      0.000000;    19 :      0.000000;    20 :      0.000000;    
21 :      0.000000;    22 :      0.000000;    

Origin  15  
15 :      0.0;    1 :      0.000000;    
2 :      0.000000;    3 :      0.000011;    4 :      0.000000;    
5 :      16.225694;    6 :      0.000000;    7 :      0.000000;    
8 :      11.383942;    9 :      0.000000;    10 :      0.000000;    
11 :      98.376390;    12 :      0.000000;    13 :      57.325460;    
14 :      89.768812;    16 :      115.054857;    17 :      84.471251;    
18 :      0.000000;    19 :      0.000000;    20 :      0.000000;    
21 :      0.000000;    22 :      0.000000;    

Origin  16  
16 :      0.0;    1 :      0.000000;    
2 :      0.000000;    3 :      72.692865;    4 :      0.000000;    
5 :      0.000000;    6 :      0.000000;    7 :      17.139574;    
8 :      0.000000;    9 :      0.000000;    10 :      0.000000;    
11 :      87.724027;    12 :      0.000000;    13 :      0.000000;    
14 :      0.368451;    15 :      4.173198;    17 :      49.320996;    
18 :      0.000000;    19 :      0.000000;    20 :      0.000000;    
21 :      0.000000;    22 :      0.000000;    

Origin  17  
17 :      0.0;    1 :      19.958584;    
2 :      0.000000;    3 :      75.977821;    4 :      0.000000;    
5 :      0.000000;    6 :      0.000000;    7 :      20.424531;    
8 :      228.764224;    9 :      0.000000;    10 :      0.000000;    
11 :      91.008984;    12 :      172.725500;    13 :      0.000000;    
14 :      3.653405;    15 :      217.380282;    16 :      3.284957;    
18 :      0.000000;    19 :      0.000000;    20 :      0.000000;    
21 :      0.000000;    22 :      0.000000;    

Origin  18  
18 :      0.0;    1 :      0.000000;    
2 :      0.000000;    3 :      0.000000;    4 :      0.000000;    
5 :      0.000000;    6 :      0.000000;    7 :      0.000000;    
8 :      0.000000;    9 :      0.000000;    10 :      0.000000;    
11 :      0.000000;    12 :      0.000000;    13 :      0.000000;    
14 :      0.000000;    15 :      0.000000;    16 :      0.000000;    
17 :      0.000000;    19 :      0.000000;    20 :      0.000000;    
21 :      0.000000;    22 :      0.000000;    

Origin  19  
19 :      0.0;    1 :      0.000000;    
2 :      0.000000;    3 :      0.000000;    4 :      0.000000;    
5 :      0.000000;    6 :      0.000000;    7 :      0.000000;    
8 :      0.000000;    9 :      0.000000;    10 :      0.000000;    
11 :      0.000000;    12 :      0.000000;    13 :      0.000000;    
14 :      0.000000;    15 :      0.000000;    16 :      0.000000;    
17 :      0.000000;    18 :      0.000000;    20 :      0.000000;    
21 :      0.000000;    22 :      0.000000;    

Origin  20  
20 :      0.0;    1 :      0.000000;    
2 :      0.000000;    3 :      0.000000;    4 :      0.000000;    
5 :      0.000000;    6 :      0.000000;    7 :      0.000000;    
8 :      0.000000;    9 :      0.000000;    10 :      0.000000;    
11 :      0.000000;    12 :      0.000000;    13 :      0.000000;    
14 :      0.000000;    15 :      0.000000;    16 :      0.000000;    
17 :      0.000000;    18 :      0.000000;    19 :      0.000000;    
21 :      0.000000;    22 :      0.000000;    

Origin  21  
21 :      0.0;    1 :      0.000000;    
2 :      0.000000;    3 :      0.000000;    4 :      0.000000;    
5 :      0.000000;    6 :      0.000000;    7 :      0.000000;    
8 :      0.000000;    9 :      0.000000;    10 :      0.000000;    
11 :      0.000000;    12 :      0.000000;    13 :      0.000000;    
14 :      0.000000;    15 :      0.000000;    16 :      0.000000;    
17 :      0.000000;    18 :      0.000000;    19 :      0.000000;    
20 :      0.000000;    22 :      0.000000;    

Origin  22  
22 :      0.0;    1 :      0.000000;    
2 :      0.000000;    3 :      0.000000;    4 :      0.000000;    
5 :      0.000000;    6 :      0.000000;    7 :      0.000000;    
8 :      0.000000;    9 :      0.000000;    10 :      0.000000;    
11 :      0.000000;    12 :      0.000000;    13 :      0.000000;    
14 :      0.000000;    15 :      0.000000;    16 :      0.000000;    
17 :      0.000000;    18 :      0.000000;    19 :      0.000000;    
20 :      0.000000;    21 :      0.000000;    

