<NUMBER OF ZONES> 8
<TOTAL OD FLOW> 0.0
<END OF METADATA>


Origin  1  
1 :      0.0;    2 :      0.000000;    
3 :      14901.090801;    4 :      0.000000;    5 :      1154.991564;    
6 :      2880.656422;    7 :      0.000030;    8 :      0.000000;    


Origin  2  
2 :      0.0;    1 :      3026.556352;    3 :      0.000000;    4 :      10610.650571;    
5 :      0.000000;    6 :      0.000000;    7 :      0.000000;    
8 :      0.000000;    

Origin  3  
3 :      0.0;    1 :      0.000029;    2 :      0.000029;    
4 :      0.000009;    5 :      1419.640357;    6 :      3743.980240;    
7 :      18180.087334;    8 :      0.000030;    

Origin  4  
4 :      0.0;    1 :      0.000251;    
2 :      10192.709363;    3 :      0.000052;    5 :      4035.415022;    
6 :      2461.933680;    7 :      2488.680188;    8 :      11138.509439;    


Origin  5  
5 :      0.0;    1 :      13246.159015;    2 :      2274.304745;    3 :      0.000044;    
4 :      7801.373488;    6 :      6997.717146;    7 :      0.000456;    
8 :      0.000356;    

Origin  6  
6 :      0.0;    1 :      5228.612855;    2 :      1379.750971;    
3 :      7299.734858;    4 :      0.000024;    5 :      8345.121313;    
7 :      0.000013;    8 :      0.000013;    

Origin  7  
7 :      0.0;    1 :      0.000019;    
2 :      0.000019;    3 :      0.000009;    4 :      0.000008;    
5 :      11036.889576;    6 :      4958.695470;    8 :      9347.251757;    


Origin  8  
8 :      0.0;    1 :      0.000019;    2 :      0.000019;    3 :      0.000058;    
4 :      8443.784192;    5 :      0.000052;    6 :      2626.603385;    
7 :      5387.891549;    

