<NUMBER OF ZONES> 8
<TOTAL OD FLOW> 0.0
<END OF METADATA>


Origin  1  
1 :      0.0;    2 :      0.000000;    
3 :      6668.481501;    4 :      0.000000;    5 :      193.316579;    
6 :      3430.146482;    7 :      0.000002;    8 :      0.000001;    


Origin  2  
2 :      0.0;    1 :      0.000099;    3 :      0.000000;    4 :      6180.081299;    
5 :      0.000000;    6 :      0.000000;    7 :      0.000000;    
8 :      0.000000;    

Origin  3  
3 :      0.0;    1 :      6075.425897;    2 :      1215.940712;    
4 :      0.704274;    5 :      8593.510043;    6 :      8171.489477;    
7 :      4976.757167;    8 :      0.000002;    

Origin  4  
4 :      0.0;    1 :      1613.237966;    
2 :      4782.578254;    3 :      671.348849;    5 :      1389.688758;    
6 :      939.699137;    7 :      0.000001;    8 :      1986.985950;    


Origin  5  
5 :      0.0;    1 :      0.260634;    2 :      0.305787;    3 :      1809.572591;    
4 :      7548.036289;    6 :      5793.702733;    7 :      0.000001;    
8 :      0.000001;    

Origin  6  
6 :      0.0;    1 :      0.000000;    2 :      0.000000;    
3 :      0.000000;    4 :      0.813634;    5 :      5341.124847;    
7 :      8087.946399;    8 :      1043.210855;    

Origin  7  
7 :      0.0;    1 :      0.000001;    
2 :      0.000001;    3 :      14408.669855;    4 :      4.648596;    
5 :      1608.228027;    6 :      2723.916315;    8 :      1342.285810;    


Origin  8  
8 :      0.0;    1 :      0.000001;    2 :      0.000001;    3 :      0.000001;    
4 :      2476.231350;    5 :      1850.560424;    6 :      1188.186123;    
7 :      1964.938610;    

