<NUMBER OF ZONES> 8
<TOTAL OD FLOW> 0.0
<END OF METADATA>


Origin  1  
1 :      0.0;    2 :      0.000000;    
3 :      464.304515;    4 :      0.000000;    5 :      1361.720266;    
6 :      673.043153;    7 :      0.231916;    8 :      0.000000;    


Origin  2  
2 :      0.0;    1 :      0.000020;    3 :      0.006277;    4 :      1298.476828;    
5 :      0.006279;    6 :      0.006276;    7 :      0.006121;    
8 :      113.265295;    

Origin  3  
3 :      0.0;    1 :      1522.448926;    2 :      53.260005;    
4 :      92.387739;    5 :      142.003419;    6 :      896.854619;    
7 :      0.227530;    8 :      0.094336;    

Origin  4  
4 :      0.0;    1 :      796.034988;    
2 :      664.472197;    3 :      0.079953;    5 :      87.119262;    
6 :      1102.396464;    7 :      0.090474;    8 :      1223.819616;    


Origin  5  
5 :      0.0;    1 :      0.441589;    2 :      1097.444031;    3 :      0.094574;    
4 :      0.033001;    6 :      0.328821;    7 :      238.631815;    
8 :      1240.365801;    

Origin  6  
6 :      0.0;    1 :      0.000001;    2 :      0.000001;    
3 :      0.000001;    4 :      1041.316790;    5 :      0.741985;    
7 :      382.423765;    8 :      0.062872;    

Origin  7  
7 :      0.0;    1 :      0.002937;    
2 :      0.002778;    3 :      0.003004;    4 :      21.251302;    
5 :      995.773474;    6 :      887.254454;    8 :      0.063452;    


Origin  8  
8 :      0.0;    1 :      0.002062;    2 :      0.020005;    3 :      865.207028;    
4 :      1233.013704;    5 :      0.005721;    6 :      171.958520;    
7 :      152.184503;    

