<NUMBER OF ZONES> 8
<TOTAL OD FLOW> 0.0
<END OF METADATA>


Origin  1  
1 :      0.0;    2 :      0.000000;    
3 :      4630.789914;    4 :      0.000000;    5 :      0.031275;    
6 :      0.128563;    7 :      0.691267;    8 :      0.000000;    


Origin  2  
2 :      0.0;    1 :      0.000018;    3 :      181.405004;    4 :      2498.844447;    
5 :      0.049184;    6 :      0.404751;    7 :      0.620333;    
8 :      20.003526;    

Origin  3  
3 :      0.0;    1 :      3776.014797;    2 :      923.466952;    
4 :      382.374624;    5 :      17.580935;    6 :      898.809338;    
7 :      4315.363094;    8 :      0.724297;    

Origin  4  
4 :      0.0;    1 :      1381.788391;    
2 :      1172.987119;    3 :      0.099102;    5 :      2020.574594;    
6 :      48.801071;    7 :      0.000055;    8 :      2143.156719;    


Origin  5  
5 :      0.0;    1 :      0.135229;    2 :      2.058473;    3 :      382.227155;    
4 :      0.402523;    6 :      2311.393755;    7 :      0.000055;    
8 :      0.000055;    

Origin  6  
6 :      0.0;    1 :      0.000001;    2 :      0.000001;    
3 :      0.000001;    4 :      1936.604912;    5 :      0.128282;    
7 :      494.792454;    8 :      492.393265;    

Origin  7  
7 :      0.0;    1 :      1.113284;    
2 :      748.921091;    3 :      1946.440363;    4 :      86.220952;    
5 :      0.509876;    6 :      196.333669;    8 :      1833.393858;    


Origin  8  
8 :      0.0;    1 :      0.003177;    2 :      0.098460;    3 :      2231.601494;    
4 :      2352.871978;    5 :      0.005617;    6 :      0.005890;    
7 :      0.005916;    

