<NUMBER OF ZONES> 8
<TOTAL OD FLOW> 0.0
<END OF METADATA>


Origin  1  
1 :      0.0;    2 :      0.000000;    
3 :      3657.289817;    4 :      0.000000;    5 :      762.773382;    
6 :      1955.183544;    7 :      0.000065;    8 :      0.000008;    


Origin  2  
2 :      0.0;    1 :      1222.071809;    3 :      1002.777281;    4 :      2981.859079;    
5 :      526.700886;    6 :      859.082786;    7 :      0.000068;    
8 :      0.000071;    

Origin  3  
3 :      0.0;    1 :      4722.906567;    2 :      1456.712217;    
4 :      512.255952;    5 :      1119.538390;    6 :      4979.420216;    
7 :      4822.595089;    8 :      0.000066;    

Origin  4  
4 :      0.0;    1 :      0.000072;    
2 :      2919.167867;    3 :      0.000006;    5 :      2216.269225;    
6 :      101.581327;    7 :      0.000036;    8 :      1882.183364;    


Origin  5  
5 :      0.0;    1 :      0.000006;    2 :      0.000006;    3 :      0.000006;    
4 :      2104.133181;    6 :      3858.760712;    7 :      0.000036;    
8 :      0.000036;    

Origin  6  
6 :      0.0;    1 :      321.920224;    2 :      148.781948;    
3 :      0.000346;    4 :      2044.635158;    5 :      3270.978038;    
7 :      3103.731206;    8 :      970.724932;    

Origin  7  
7 :      0.0;    1 :      0.000011;    
2 :      0.000011;    3 :      10061.630235;    4 :      334.516936;    
5 :      377.461751;    6 :      2053.599640;    8 :      1459.270203;    


Origin  8  
8 :      0.0;    1 :      0.000011;    2 :      0.000011;    3 :      0.000011;    
4 :      1715.038744;    5 :      312.499037;    6 :      895.056295;    
7 :      2327.816943;    

