<NUMBER OF ZONES> 8
<TOTAL OD FLOW> 0.0
<END OF METADATA>


Origin  1  
1 :      0.0;    2 :      0.000000;    
3 :      1277.343754;    4 :      0.000000;    5 :      608.496589;    
6 :      98.462997;    7 :      330.520314;    8 :      0.000000;    


Origin  2  
2 :      0.0;    1 :      759.807293;    3 :      0.000000;    4 :      1218.194422;    
5 :      0.000000;    6 :      0.000000;    7 :      0.000000;    
8 :      0.000000;    

Origin  3  
3 :      0.0;    1 :      1915.895466;    2 :      783.644458;    
4 :      142.564185;    5 :      135.021847;    6 :      497.444320;    
7 :      260.428528;    8 :      283.721843;    

Origin  4  
4 :      0.0;    1 :      0.000020;    
2 :      1188.956092;    3 :      1270.012315;    5 :      0.051761;    
6 :      0.111233;    7 :      0.045261;    8 :      1072.756660;    


Origin  5  
5 :      0.0;    1 :      0.031423;    2 :      103.349847;    3 :      0.045772;    
4 :      0.061134;    6 :      1044.616100;    7 :      563.296602;    
8 :      173.253629;    

Origin  6  
6 :      0.0;    1 :      0.105911;    2 :      12.009389;    
3 :      960.210675;    4 :      938.182228;    5 :      0.116915;    
7 :      866.057498;    8 :      192.607893;    

Origin  7  
7 :      0.0;    1 :      0.000002;    
2 :      0.000002;    3 :      0.000002;    4 :      205.020309;    
5 :      65.516095;    6 :      1131.218809;    8 :      333.942788;    


Origin  8  
8 :      0.0;    1 :      0.000002;    2 :      0.000002;    3 :      0.000002;    
4 :      1155.535764;    5 :      1221.975421;    6 :      0.008925;    
7 :      0.008927;    

