<NUMBER OF ZONES> 8
<TOTAL OD FLOW> 0.0
<END OF METADATA>


Origin  1  
1 :      0.0;    2 :      0.000000;    
3 :      1780.572467;    4 :      0.000000;    5 :      2849.434329;    
6 :      0.000016;    7 :      0.000039;    8 :      0.000000;    


Origin  2  
2 :      0.0;    1 :      1245.831579;    3 :      43.778373;    4 :      2340.538634;    
5 :      0.000028;    6 :      0.000088;    7 :      0.000039;    
8 :      0.000039;    

Origin  3  
3 :      0.0;    1 :      2017.232504;    2 :      12.765155;    
4 :      0.000023;    5 :      0.000023;    6 :      2232.056001;    
7 :      0.000039;    8 :      0.000039;    

Origin  4  
4 :      0.0;    1 :      0.000003;    
2 :      2543.094382;    3 :      0.001869;    5 :      0.023182;    
6 :      0.010912;    7 :      1871.121817;    8 :      2308.690769;    


Origin  5  
5 :      0.0;    1 :      1691.822311;    2 :      1234.189834;    3 :      0.003625;    
4 :      730.195037;    6 :      1876.650688;    7 :      55.004566;    
8 :      150.462266;    

Origin  6  
6 :      0.0;    1 :      0.181290;    2 :      297.827243;    
3 :      1807.371856;    4 :      1469.975047;    5 :      0.006001;    
7 :      2399.413681;    8 :      835.008700;    

Origin  7  
7 :      0.0;    1 :      0.000000;    
2 :      0.000000;    3 :      0.000000;    4 :      180.025924;    
5 :      0.006469;    6 :      2594.574048;    8 :      1242.226858;    


Origin  8  
8 :      0.0;    1 :      0.000000;    2 :      0.000000;    3 :      0.000000;    
4 :      2275.460266;    5 :      2029.560701;    6 :      0.001805;    
7 :      0.001844;    

