<NUMBER OF ZONES> 8
<TOTAL OD FLOW> 0.0
<END OF METADATA>


Origin  1  
1 :      0.0;    2 :      0.000000;    
3 :      2807.527941;    4 :      0.000000;    5 :      0.000001;    
6 :      1340.185699;    7 :      0.000001;    8 :      0.000000;    


Origin  2  
2 :      0.0;    1 :      0.000800;    3 :      883.420814;    4 :      3190.989736;    
5 :      0.000001;    6 :      581.764309;    7 :      0.000001;    
8 :      0.000001;    

Origin  3  
3 :      0.0;    1 :      5901.698371;    2 :      6786.292240;    
4 :      0.000001;    5 :      0.000001;    6 :      1841.614319;    
7 :      9939.582535;    8 :      0.000001;    

Origin  4  
4 :      0.0;    1 :      2668.094880;    
2 :      1092.223880;    3 :      1249.142976;    5 :      2591.049945;    
6 :      1929.568514;    7 :      1786.185415;    8 :      3397.035970;    


Origin  5  
5 :      0.0;    1 :      0.052653;    2 :      0.016222;    3 :      4452.834355;    
4 :      1299.680382;    6 :      4603.180819;    7 :      2580.544049;    
8 :      1031.537315;    

Origin  6  
6 :      0.0;    1 :      0.000052;    2 :      0.000052;    
3 :      6241.137400;    4 :      688.763292;    5 :      1729.946085;    
7 :      5002.914410;    8 :      1140.918356;    

Origin  7  
7 :      0.0;    1 :      0.000001;    
2 :      0.000001;    3 :      6377.683168;    4 :      0.000000;    
5 :      0.000000;    6 :      2987.568010;    8 :      1646.368198;    


Origin  8  
8 :      0.0;    1 :      0.000001;    2 :      0.000001;    3 :      0.000001;    
4 :      1684.090098;    5 :      0.000000;    6 :      773.436521;    
7 :      1118.369542;    

