<NUMBER OF ZONES> 8
<NUMBER OF ZONES> 8
<FIRST THRU NODE> 1
<NUMBER OF LINKS> 24
<NUMBER OF ZONES> 8
<END OF METADATA>


~  Init node  Term node  Capacity  Length  Free Flow Time  B  Power  Speed limit  Toll  Type  ;
  1  2  14699.597922  0.000000  0.309077  0.000000  0.000000  0.000000  0.000000  0.000000  ;
  2  1  14306.696382  0.000000  0.328601  0.000000  0.000000  0.000000  0.000000  0.000000  ;
  1  3  18114.841651  0.000000  0.455004  0.000000  0.000000  0.000000  0.000000  0.000000  ;
  3  1  18355.223894  0.000000  0.463031  0.000000  0.000000  0.000000  0.000000  0.000000  ;
  2  3  18133.743678  0.000000  0.141994  0.000000  0.000000  0.000000  0.000000  0.000000  ;
  3  2  18420.544973  0.000000  0.169591  0.000000  0.000000  0.000000  0.000000  0.000000  ;
  2  4  15365.510225  0.000000  0.532474  0.000000  0.000000  0.000000  0.000000  0.000000  ;
  4  2  15354.290511  0.000000  0.551125  0.000000  0.000000  0.000000  0.000000  0.000000  ;
  3  5  19942.691487  0.000000  0.241228  0.000000  0.000000  0.000000  0.000000  0.000000  ;
  5  3  19596.030461  0.000000  0.250947  0.000000  0.000000  0.000000  0.000000  0.000000  ;
  3  6  18921.572927  0.000000  0.198582  0.000000  0.000000  0.000000  0.000000  0.000000  ;
  6  3  16388.730266  0.000000  0.205095  0.000000  0.000000  0.000000  0.000000  0.000000  ;
  4  5  14387.500463  0.000000  0.239197  0.000000  0.000000  0.000000  0.000000  0.000000  ;
  5  4  16011.187225  0.000000  0.246538  0.000000  0.000000  0.000000  0.000000  0.000000  ;
  5  6  14815.269593  0.000000  0.174600  0.000000  0.000000  0.000000  0.000000  0.000000  ;
  6  5  11904.960328  0.000000  0.173098  0.000000  0.000000  0.000000  0.000000  0.000000  ;
  4  8  15000.000000  0.000000  0.342531  0.000000  0.000000  0.000000  0.000000  0.000000  ;
  8  4  15000.000000  0.000000  0.343678  0.000000  0.000000  0.000000  0.000000  0.000000  ;
  5  7  18095.925423  0.000000  0.189028  0.000000  0.000000  0.000000  0.000000  0.000000  ;
  7  5  18215.554894  0.000000  0.187959  0.000000  0.000000  0.000000  0.000000  0.000000  ;
  6  7  17324.129260  0.000000  0.259832  0.000000  0.000000  0.000000  0.000000  0.000000  ;
  7  6  16728.543105  0.000000  0.259502  0.000000  0.000000  0.000000  0.000000  0.000000  ;
  7  8  15000.000000  0.000000  0.194284  0.000000  0.000000  0.000000  0.000000  0.000000  ;
  8  7  15000.000000  0.000000  0.201222  0.000000  0.000000  0.000000  0.000000  0.000000  ;
