<NUMBER OF ZONES> 8
<TOTAL OD FLOW> 0.0
<END OF METADATA>


Origin  1  
1 :      0.0;    2 :      0.000000;    
3 :      1432.000539;    4 :      0.000000;    5 :      0.000187;    
6 :      1492.407514;    7 :      0.000351;    8 :      0.000000;    


Origin  2  
2 :      0.0;    1 :      709.016964;    3 :      0.000000;    4 :      1337.402518;    
5 :      0.000000;    6 :      0.000000;    7 :      0.000000;    
8 :      0.000000;    

Origin  3  
3 :      0.0;    1 :      1697.027235;    2 :      0.000324;    
4 :      0.002349;    5 :      1579.888658;    6 :      0.000127;    
7 :      0.000341;    8 :      0.000240;    

Origin  4  
4 :      0.0;    1 :      0.000000;    
2 :      1293.138983;    3 :      0.000226;    5 :      0.003401;    
6 :      1228.193992;    7 :      0.003855;    8 :      1212.252946;    


Origin  5  
5 :      0.0;    1 :      292.883100;    2 :      0.000169;    3 :      0.000229;    
4 :      1167.354555;    6 :      102.911281;    7 :      46.664090;    
8 :      1312.347367;    

Origin  6  
6 :      0.0;    1 :      0.000000;    2 :      0.000000;    
3 :      0.000000;    4 :      0.002378;    5 :      835.130790;    
7 :      1464.880038;    8 :      0.000479;    

Origin  7  
7 :      0.0;    1 :      0.098698;    
2 :      0.000313;    3 :      1449.084227;    4 :      0.000445;    
5 :      0.000560;    6 :      249.953879;    8 :      0.000478;    


Origin  8  
8 :      0.0;    1 :      0.000503;    2 :      999.786874;    3 :      62.287501;    
4 :      1307.099997;    5 :      202.147890;    6 :      0.000355;    
7 :      0.000338;    

