<NUMBER OF ZONES> 8
<TOTAL OD FLOW> 0.0
<END OF METADATA>


Origin  1  
1 :      0.0;    2 :      0.000000;    
3 :      3773.939271;    4 :      0.000000;    5 :      1156.116486;    
6 :      1154.677533;    7 :      43.277161;    8 :      0.000000;    


Origin  2  
2 :      0.0;    1 :      0.006417;    3 :      0.000000;    4 :      3377.348704;    
5 :      0.000000;    6 :      0.000000;    7 :      0.000000;    
8 :      0.000000;    

Origin  3  
3 :      0.0;    1 :      3507.289905;    2 :      783.668753;    
4 :      254.794225;    5 :      1537.134822;    6 :      1679.322003;    
7 :      0.000037;    8 :      49.400728;    

Origin  4  
4 :      0.0;    1 :      1626.517622;    
2 :      1114.262343;    3 :      18.294535;    5 :      2814.089022;    
6 :      17.184351;    7 :      21.129422;    8 :      2522.233711;    


Origin  5  
5 :      0.0;    1 :      1.821589;    2 :      1.772659;    3 :      1202.820652;    
4 :      86.020788;    6 :      1879.449018;    7 :      1520.115301;    
8 :      723.393309;    

Origin  6  
6 :      0.0;    1 :      1766.409793;    2 :      611.940955;    
3 :      0.000098;    4 :      1599.043798;    5 :      29.872639;    
7 :      1255.053288;    8 :      557.506228;    

Origin  7  
7 :      0.0;    1 :      0.000008;    
2 :      0.000008;    3 :      2606.954360;    4 :      263.211149;    
5 :      841.248042;    6 :      0.000004;    8 :      1023.614631;    


Origin  8  
8 :      0.0;    1 :      0.000008;    2 :      0.000008;    3 :      0.000008;    
4 :      2644.461340;    5 :      652.842112;    6 :      0.000004;    
7 :      2585.665516;    

