<NUMBER OF ZONES> 8
<TOTAL OD FLOW> 0.0
<END OF METADATA>


Origin  1  
1 :      0.0;    2 :      0.000000;    
3 :      3055.984126;    4 :      0.000000;    5 :      0.000003;    
6 :      1070.232551;    7 :      0.000004;    8 :      0.000000;    


Origin  2  
2 :      0.0;    1 :      2635.282556;    3 :      1061.712556;    4 :      3360.988427;    
5 :      0.000003;    6 :      410.810918;    7 :      0.000004;    
8 :      0.000004;    

Origin  3  
3 :      0.0;    1 :      254.808497;    2 :      208.038698;    
4 :      0.000001;    5 :      0.000003;    6 :      1948.789219;    
7 :      11535.309000;    8 :      0.000004;    

Origin  4  
4 :      0.0;    1 :      0.000030;    
2 :      4065.066015;    3 :      0.000003;    5 :      1680.158020;    
6 :      1442.983813;    7 :      6832.664165;    8 :      2736.949930;    


Origin  5  
5 :      0.0;    1 :      6413.770704;    2 :      6164.275944;    3 :      0.000003;    
4 :      1826.991161;    6 :      5617.174983;    7 :      0.000104;    
8 :      0.000035;    

Origin  6  
6 :      0.0;    1 :      0.000019;    2 :      0.000018;    
3 :      9062.590862;    4 :      0.000001;    5 :      2614.047345;    
7 :      4069.395950;    8 :      1952.198665;    

Origin  7  
7 :      0.0;    1 :      1042.294030;    
2 :      1077.389570;    3 :      0.000004;    4 :      0.000003;    
5 :      0.000005;    6 :      7685.828614;    8 :      3501.663951;    


Origin  8  
8 :      0.0;    1 :      0.000003;    2 :      0.000003;    3 :      0.000003;    
4 :      1889.638610;    5 :      2009.260151;    6 :      0.000003;    
7 :      0.000003;    

