<NUMBER OF ZONES> 8
<TOTAL OD FLOW> 0.0
<END OF METADATA>


Origin  1  
1 :      0.0;    2 :      0.000000;    
3 :      4402.209708;    4 :      0.000000;    5 :      0.000001;    
6 :      551.678222;    7 :      0.000002;    8 :      0.000000;    


Origin  2  
2 :      0.0;    1 :      0.000524;    3 :      1035.104782;    4 :      2720.980405;    
5 :      0.000001;    6 :      386.148778;    7 :      0.000002;    
8 :      0.000002;    

Origin  3  
3 :      0.0;    1 :      1750.801583;    2 :      1877.744422;    
4 :      0.000001;    5 :      0.000001;    6 :      1113.706516;    
7 :      10229.949554;    8 :      0.000002;    

Origin  4  
4 :      0.0;    1 :      1697.052256;    
2 :      1222.157180;    3 :      1391.580844;    5 :      1724.776522;    
6 :      1479.269233;    7 :      1118.635471;    8 :      2599.762385;    


Origin  5  
5 :      0.0;    1 :      0.173231;    2 :      0.172660;    3 :      5959.819337;    
4 :      1.020218;    6 :      5493.811842;    7 :      1885.803803;    
8 :      756.476470;    

Origin  6  
6 :      0.0;    1 :      3214.310988;    2 :      2350.483741;    
3 :      0.000008;    4 :      2127.497204;    5 :      69.747086;    
7 :      4585.081809;    8 :      862.222361;    

Origin  7  
7 :      0.0;    1 :      0.000000;    
2 :      0.000000;    3 :      6738.582890;    4 :      0.000000;    
5 :      0.000000;    6 :      1065.687972;    8 :      1221.798500;    


Origin  8  
8 :      0.0;    1 :      0.000000;    2 :      0.000000;    3 :      0.000000;    
4 :      1833.068397;    5 :      0.000000;    6 :      290.256412;    
7 :      1780.500020;    

