<NUMBER OF ZONES> 8
<TOTAL OD FLOW> 0.0
<END OF METADATA>


Origin  1  
1 :      0.0;    2 :      0.000000;    
3 :      1985.317068;    4 :      0.000000;    5 :      5074.872942;    
6 :      0.001477;    7 :      0.014677;    8 :      0.000000;    


Origin  2  
2 :      0.0;    1 :      0.006683;    3 :      0.007225;    4 :      3516.325603;    
5 :      0.001553;    6 :      287.369570;    7 :      0.004853;    
8 :      0.004882;    

Origin  3  
3 :      0.0;    1 :      3487.049427;    2 :      1.176484;    
4 :      0.002469;    5 :      0.002465;    6 :      2274.417358;    
7 :      0.014788;    8 :      0.014514;    

Origin  4  
4 :      0.0;    1 :      2126.096868;    
2 :      1998.418576;    3 :      1.302362;    5 :      488.987544;    
6 :      48.467589;    7 :      2405.421796;    8 :      3506.137294;    


Origin  5  
5 :      0.0;    1 :      941.395759;    2 :      0.131937;    3 :      1.582941;    
4 :      584.123088;    6 :      3480.671153;    7 :      1.039778;    
8 :      1260.098886;    

Origin  6  
6 :      0.0;    1 :      0.000133;    2 :      0.000133;    
3 :      0.000133;    4 :      2630.292812;    5 :      0.319233;    
7 :      3549.363131;    8 :      261.259789;    

Origin  7  
7 :      0.0;    1 :      1142.855445;    
2 :      2524.451977;    3 :      1.864211;    4 :      274.311753;    
5 :      0.256599;    6 :      547.292239;    8 :      329.560050;    


Origin  8  
8 :      0.0;    1 :      0.493572;    2 :      1.339415;    3 :      3311.082904;    
4 :      3720.205690;    5 :      0.068858;    6 :      0.202447;    
7 :      0.246802;    

