<NUMBER OF ZONES> 8
<TOTAL OD FLOW> 0.0
<END OF METADATA>


Origin  1  
1 :      0.0;    2 :      0.000000;    
3 :      7003.158150;    4 :      0.000000;    5 :      0.041602;    
6 :      4.744382;    7 :      1.112136;    8 :      0.000000;    


Origin  2  
2 :      0.0;    1 :      0.000520;    3 :      0.000000;    4 :      4423.554470;    
5 :      0.000000;    6 :      0.000000;    7 :      0.000000;    
8 :      0.000000;    

Origin  3  
3 :      0.0;    1 :      4148.486912;    2 :      0.413171;    
4 :      0.235187;    5 :      94.570393;    6 :      886.824390;    
7 :      6236.322720;    8 :      0.540002;    

Origin  4  
4 :      0.0;    1 :      2196.432647;    
2 :      1901.890013;    3 :      0.781044;    5 :      2.279618;    
6 :      3173.035688;    7 :      0.001204;    8 :      3477.693438;    


Origin  5  
5 :      0.0;    1 :      0.206988;    2 :      0.166197;    3 :      1188.949767;    
4 :      3487.065431;    6 :      343.520920;    7 :      0.001194;    
8 :      0.001195;    

Origin  6  
6 :      0.0;    1 :      696.485941;    2 :      1.756729;    
3 :      73.752288;    4 :      0.205541;    5 :      2704.604792;    
7 :      455.875968;    8 :      575.214316;    

Origin  7  
7 :      0.0;    1 :      383.719753;    
2 :      0.661775;    3 :      2540.554468;    4 :      0.163056;    
5 :      379.040776;    6 :      0.000026;    8 :      3047.207361;    


Origin  8  
8 :      0.0;    1 :      0.114166;    2 :      2202.934754;    3 :      1281.857174;    
4 :      3126.607333;    5 :      0.201497;    6 :      0.000026;    
7 :      0.173112;    

