<NUMBER OF ZONES> 8
<TOTAL OD FLOW> 0.0
<END OF METADATA>


Origin  1  
1 :      0.0;    2 :      0.000000;    
3 :      1310.948867;    4 :      0.000000;    5 :      880.596498;    
6 :      397.404899;    7 :      2.035738;    8 :      0.000000;    


Origin  2  
2 :      0.0;    1 :      0.000513;    3 :      0.075554;    4 :      1279.005461;    
5 :      0.065178;    6 :      0.062722;    7 :      0.053341;    
8 :      450.555433;    

Origin  3  
3 :      0.0;    1 :      1899.078649;    2 :      975.961056;    
4 :      0.049696;    5 :      671.461513;    6 :      1011.739293;    
7 :      1.524346;    8 :      0.889190;    

Origin  4  
4 :      0.0;    1 :      915.667742;    
2 :      683.704690;    3 :      207.640216;    5 :      0.025923;    
6 :      820.724922;    7 :      0.079413;    8 :      1214.046435;    


Origin  5  
5 :      0.0;    1 :      0.017957;    2 :      0.023174;    3 :      0.018787;    
4 :      1304.891716;    6 :      226.896118;    7 :      443.669374;    
8 :      794.212808;    

Origin  6  
6 :      0.0;    1 :      0.000003;    2 :      0.000003;    
3 :      0.000003;    4 :      0.048599;    5 :      555.415933;    
7 :      1352.820843;    8 :      0.678122;    

Origin  7  
7 :      0.0;    1 :      7.179385;    
2 :      0.262385;    3 :      1292.769855;    4 :      0.048631;    
5 :      215.589571;    6 :      51.114976;    8 :      0.070847;    


Origin  8  
8 :      0.0;    1 :      0.008268;    2 :      0.084601;    3 :      1121.078298;    
4 :      1219.432051;    5 :      0.008718;    6 :      0.008131;    
7 :      0.008842;    

