<NUMBER OF ZONES> 8
<TOTAL OD FLOW> 0.0
<END OF METADATA>


Origin  1  
1 :      0.0;    2 :      0.000000;    
3 :      849.208393;    4 :      0.000000;    5 :      1283.175683;    
6 :      168.016854;    7 :      481.691724;    8 :      0.000000;    


Origin  2  
2 :      0.0;    1 :      0.000320;    3 :      0.000000;    4 :      1377.309869;    
5 :      0.000000;    6 :      0.000000;    7 :      0.000000;    
8 :      0.000000;    

Origin  3  
3 :      0.0;    1 :      1682.484395;    2 :      16.241591;    
4 :      0.348899;    5 :      14.897207;    6 :      1151.832026;    
7 :      4.150148;    8 :      0.674052;    

Origin  4  
4 :      0.0;    1 :      748.860575;    
2 :      772.877618;    3 :      3.985516;    5 :      608.381749;    
6 :      497.193508;    7 :      2.939921;    8 :      1308.906166;    


Origin  5  
5 :      0.0;    1 :      0.455720;    2 :      0.196677;    3 :      249.829968;    
4 :      1300.230285;    6 :      865.044570;    7 :      1274.434862;    
8 :      0.500818;    

Origin  6  
6 :      0.0;    1 :      0.000024;    2 :      0.000024;    
3 :      0.000024;    4 :      0.403182;    5 :      988.645220;    
7 :      771.800440;    8 :      533.860183;    

Origin  7  
7 :      0.0;    1 :      333.137314;    
2 :      850.427006;    3 :      87.382635;    4 :      0.345222;    
5 :      290.105448;    6 :      145.692878;    8 :      731.592701;    


Origin  8  
8 :      0.0;    1 :      0.040312;    2 :      0.120131;    3 :      1387.733156;    
4 :      1295.219388;    5 :      0.090542;    6 :      0.073289;    
7 :      0.073457;    

