<NUMBER OF ZONES> 8
<TOTAL OD FLOW> 0.0
<END OF METADATA>


Origin  1  
1 :      0.0;    2 :      0.000000;    
3 :      4349.255568;    4 :      0.000000;    5 :      85.728362;    
6 :      950.102532;    7 :      0.000002;    8 :      0.000000;    


Origin  2  
2 :      0.0;    1 :      0.001594;    3 :      170.730709;    4 :      2567.735304;    
5 :      82.764785;    6 :      144.764508;    7 :      0.000002;    
8 :      0.000002;    

Origin  3  
3 :      0.0;    1 :      2960.399330;    2 :      467.565885;    
4 :      99.167288;    5 :      84.414697;    6 :      1230.595367;    
7 :      3422.519185;    8 :      0.000002;    

Origin  4  
4 :      0.0;    1 :      1711.228925;    
2 :      861.140897;    3 :      255.677927;    5 :      1483.462869;    
6 :      678.355840;    7 :      0.000001;    8 :      2471.142570;    


Origin  5  
5 :      0.0;    1 :      0.550683;    2 :      0.598304;    3 :      400.202844;    
4 :      0.306555;    6 :      1495.977137;    7 :      0.000001;    
8 :      0.000001;    

Origin  6  
6 :      0.0;    1 :      1301.800578;    2 :      465.017421;    
3 :      0.000048;    4 :      1374.936143;    5 :      176.255606;    
7 :      183.556540;    8 :      247.548594;    

Origin  7  
7 :      0.0;    1 :      0.000002;    
2 :      0.000002;    3 :      2721.003048;    4 :      65.878875;    
5 :      673.172133;    6 :      0.000001;    8 :      2419.441936;    


Origin  8  
8 :      0.0;    1 :      0.000002;    2 :      0.000002;    3 :      0.000002;    
4 :      2399.426576;    5 :      506.782262;    6 :      0.000001;    
7 :      2404.915533;    

