<NUMBER OF ZONES> 8
<TOTAL OD FLOW> 0.0
<END OF METADATA>


Origin  1  
1 :      0.0;    2 :      0.000000;    
3 :      5449.364072;    4 :      0.000000;    5 :      0.000001;    
6 :      1242.640724;    7 :      0.000002;    8 :      0.000000;    


Origin  2  
2 :      0.0;    1 :      0.000916;    3 :      334.769169;    4 :      3222.654846;    
5 :      0.000001;    6 :      246.460592;    7 :      0.000002;    
8 :      0.000002;    

Origin  3  
3 :      0.0;    1 :      1955.231626;    2 :      974.996123;    
4 :      0.000001;    5 :      0.000001;    6 :      1490.743811;    
7 :      10357.363890;    8 :      0.000002;    

Origin  4  
4 :      0.0;    1 :      2154.464668;    
2 :      1984.913209;    3 :      363.265893;    5 :      1211.477258;    
6 :      991.906203;    7 :      587.838018;    8 :      3594.857519;    


Origin  5  
5 :      0.0;    1 :      0.195684;    2 :      0.148830;    3 :      587.678230;    
4 :      1870.209040;    6 :      5259.939962;    7 :      929.230909;    
8 :      547.254836;    

Origin  6  
6 :      0.0;    1 :      3178.975786;    2 :      1355.239769;    
3 :      0.000034;    4 :      1135.411211;    5 :      2567.107372;    
7 :      719.647735;    8 :      490.909773;    

Origin  7  
7 :      0.0;    1 :      0.000000;    
2 :      0.000000;    3 :      7888.050577;    4 :      0.000000;    
5 :      0.000000;    6 :      0.071093;    8 :      1585.928399;    


Origin  8  
8 :      0.0;    1 :      0.000000;    2 :      0.000000;    3 :      0.000000;    
4 :      3225.320204;    5 :      0.000000;    6 :      0.044072;    
7 :      4022.002653;    

