<NUMBER OF ZONES> 8
<TOTAL OD FLOW> 0.0
<END OF METADATA>


Origin  1  
1 :      0.0;    2 :      0.000000;    
3 :      2646.052433;    4 :      0.000000;    5 :      0.001150;    
6 :      0.178087;    7 :      0.000468;    8 :      0.000000;    


Origin  2  
2 :      0.0;    1 :      655.190479;    3 :      0.007049;    4 :      1291.640660;    
5 :      152.029550;    6 :      0.007042;    7 :      0.000439;    
8 :      0.000442;    

Origin  3  
3 :      0.0;    1 :      591.863147;    2 :      0.435743;    
4 :      1023.111339;    5 :      150.555114;    6 :      959.876518;    
7 :      0.000468;    8 :      0.000468;    

Origin  4  
4 :      0.0;    1 :      0.000116;    
2 :      1309.068466;    3 :      262.581615;    5 :      0.001029;    
6 :      807.648368;    7 :      0.001040;    8 :      1167.481867;    


Origin  5  
5 :      0.0;    1 :      393.670096;    2 :      763.078206;    3 :      239.228854;    
4 :      0.020506;    6 :      0.000067;    7 :      1117.963911;    
8 :      325.573663;    

Origin  6  
6 :      0.0;    1 :      992.331381;    2 :      1.837372;    
3 :      258.155535;    4 :      2.863505;    5 :      1404.077992;    
7 :      791.095294;    8 :      256.880852;    

Origin  7  
7 :      0.0;    1 :      0.000011;    
2 :      0.000011;    3 :      0.000011;    4 :      225.986805;    
5 :      58.267581;    6 :      970.019783;    8 :      627.858996;    


Origin  8  
8 :      0.0;    1 :      0.000011;    2 :      0.000011;    3 :      0.000011;    
4 :      1217.231163;    5 :      21.151234;    6 :      456.129331;    
7 :      743.468240;    

