<NUMBER OF ZONES> 8
<TOTAL OD FLOW> 0.0
<END OF METADATA>


Origin  1  
1 :      0.0;    2 :      0.000000;    
3 :      1173.323702;    4 :      0.000000;    5 :      0.000211;    
6 :      1522.617495;    7 :      0.000353;    8 :      0.000000;    


Origin  2  
2 :      0.0;    1 :      0.000131;    3 :      59.611299;    4 :      1351.456187;    
5 :      0.000743;    6 :      0.000199;    7 :      0.000353;    
8 :      0.000350;    

Origin  3  
3 :      0.0;    1 :      706.154047;    2 :      0.023823;    
4 :      0.167914;    5 :      1525.132737;    6 :      0.000143;    
7 :      0.000353;    8 :      0.000353;    

Origin  4  
4 :      0.0;    1 :      737.860561;    
2 :      630.649005;    3 :      0.016790;    5 :      0.215626;    
6 :      0.093975;    7 :      1147.522040;    8 :      1219.258177;    


Origin  5  
5 :      0.0;    1 :      9.487695;    2 :      0.016414;    3 :      0.014678;    
4 :      1234.311659;    6 :      1245.776797;    7 :      334.528670;    
8 :      23.445331;    

Origin  6  
6 :      0.0;    1 :      0.000002;    2 :      0.000002;    
3 :      0.000002;    4 :      0.399598;    5 :      971.120465;    
7 :      1036.397850;    8 :      538.575386;    

Origin  7  
7 :      0.0;    1 :      1312.545126;    
2 :      0.023434;    3 :      5.180474;    4 :      0.169280;    
5 :      322.035624;    6 :      141.168466;    8 :      694.179464;    


Origin  8  
8 :      0.0;    1 :      0.007993;    2 :      959.445892;    3 :      332.041904;    
4 :      1274.970838;    5 :      0.004198;    6 :      0.008679;    
7 :      0.008681;    

