<NUMBER OF ZONES> 8
<TOTAL OD FLOW> 0.0
<END OF METADATA>


Origin  1  
1 :      0.0;    2 :      0.000000;    
3 :      941.590828;    4 :      0.000000;    5 :      0.000102;    
6 :      1525.830272;    7 :      0.000169;    8 :      0.000000;    


Origin  2  
2 :      0.0;    1 :      856.582002;    3 :      0.001132;    4 :      1237.638601;    
5 :      371.549071;    6 :      0.000060;    7 :      0.000147;    
8 :      0.000156;    

Origin  3  
3 :      0.0;    1 :      1497.070529;    2 :      1425.721043;    
4 :      0.005566;    5 :      1017.923982;    6 :      0.000069;    
7 :      0.000169;    8 :      0.000169;    

Origin  4  
4 :      0.0;    1 :      0.000011;    
2 :      1353.670709;    3 :      712.627086;    5 :      203.771239;    
6 :      0.088473;    7 :      0.478504;    8 :      1134.047894;    


Origin  5  
5 :      0.0;    1 :      0.011099;    2 :      0.004734;    3 :      0.053473;    
4 :      1077.686902;    6 :      1102.428854;    7 :      165.718930;    
8 :      1100.121574;    

Origin  6  
6 :      0.0;    1 :      0.000000;    2 :      0.000000;    
3 :      0.000000;    4 :      0.005845;    5 :      865.337541;    
7 :      733.724495;    8 :      0.036006;    

Origin  7  
7 :      0.0;    1 :      0.074940;    
2 :      0.075056;    3 :      984.478219;    4 :      0.005586;    
5 :      238.212378;    6 :      293.998110;    8 :      0.034274;    


Origin  8  
8 :      0.0;    1 :      0.000463;    2 :      0.000946;    3 :      1204.526118;    
4 :      1030.169036;    5 :      0.000402;    6 :      0.000530;    
7 :      0.000530;    

