<NUMBER OF ZONES> 8
<TOTAL OD FLOW> 0.0
<END OF METADATA>


Origin  1  
1 :      0.0;    2 :      0.000000;    
3 :      3504.793875;    4 :      0.000000;    5 :      0.002017;    
6 :      1168.309056;    7 :      1810.345523;    8 :      0.000000;    


Origin  2  
2 :      0.0;    1 :      0.000054;    3 :      3.122064;    4 :      3752.134176;    
5 :      0.005616;    6 :      0.672473;    7 :      280.344034;    
8 :      0.156573;    

Origin  3  
3 :      0.0;    1 :      4022.283928;    2 :      1156.655144;    
4 :      343.879341;    5 :      1.596747;    6 :      0.658456;    
7 :      4634.520380;    8 :      1.355507;    

Origin  4  
4 :      0.0;    1 :      2110.372718;    
2 :      1647.247269;    3 :      589.230697;    5 :      2424.056315;    
6 :      1.372013;    7 :      0.000154;    8 :      3584.271813;    


Origin  5  
5 :      0.0;    1 :      2.657753;    2 :      2.303937;    3 :      26.006849;    
4 :      553.538287;    6 :      3003.526716;    7 :      0.000152;    
8 :      0.000153;    

Origin  6  
6 :      0.0;    1 :      1.399958;    2 :      0.751648;    
3 :      146.813589;    4 :      2750.727282;    5 :      1.005246;    
7 :      271.267407;    8 :      595.509100;    

Origin  7  
7 :      0.0;    1 :      1699.321071;    
2 :      1311.820736;    3 :      851.442524;    4 :      0.000003;    
5 :      0.000003;    6 :      232.825075;    8 :      3016.899246;    


Origin  8  
8 :      0.0;    1 :      0.009300;    2 :      0.359373;    3 :      3635.110926;    
4 :      3554.153342;    5 :      0.000003;    6 :      0.018317;    
7 :      0.018326;    

