<NUMBER OF ZONES> 8
<NUMBER OF ZONES> 8
<FIRST THRU NODE> 1
<NUMBER OF LINKS> 24
<NUMBER OF ZONES> 8
<END OF METADATA>


~  Init node  Term node  Capacity  Length  Free Flow Time  B  Power  Speed limit  Toll  Type  ;
  1  2  27929.236052  0.000000  0.309077  0.000000  0.000000  0.000000  0.000000  0.000000  ;
  2  1  27182.723125  0.000000  0.328601  0.000000  0.000000  0.000000  0.000000  0.000000  ;
  1  3  34418.199137  0.000000  0.455004  0.000000  0.000000  0.000000  0.000000  0.000000  ;
  3  1  34874.925399  0.000000  0.463031  0.000000  0.000000  0.000000  0.000000  0.000000  ;
  2  3  34454.112989  0.000000  0.141994  0.000000  0.000000  0.000000  0.000000  0.000000  ;
  3  2  32672.769049  0.000000  0.169591  0.000000  0.000000  0.000000  0.000000  0.000000  ;
  2  4  29194.469428  0.000000  0.532474  0.000000  0.000000  0.000000  0.000000  0.000000  ;
  4  2  29173.151971  0.000000  0.551125  0.000000  0.000000  0.000000  0.000000  0.000000  ;
  3  5  37891.113825  0.000000  0.241228  0.000000  0.000000  0.000000  0.000000  0.000000  ;
  5  3  37232.457876  0.000000  0.250947  0.000000  0.000000  0.000000  0.000000  0.000000  ;
  3  6  35950.988561  0.000000  0.198582  0.000000  0.000000  0.000000  0.000000  0.000000  ;
  6  3  31138.587506  0.000000  0.205095  0.000000  0.000000  0.000000  0.000000  0.000000  ;
  4  5  27336.250880  0.000000  0.239197  0.000000  0.000000  0.000000  0.000000  0.000000  ;
  5  4  30421.255727  0.000000  0.246538  0.000000  0.000000  0.000000  0.000000  0.000000  ;
  5  6  28149.012227  0.000000  0.174600  0.000000  0.000000  0.000000  0.000000  0.000000  ;
  6  5  22619.424623  0.000000  0.173098  0.000000  0.000000  0.000000  0.000000  0.000000  ;
  4  8  28500.000000  0.000000  0.342531  0.000000  0.000000  0.000000  0.000000  0.000000  ;
  8  4  28500.000000  0.000000  0.343678  0.000000  0.000000  0.000000  0.000000  0.000000  ;
  5  7  30764.516609  0.000000  0.189028  0.000000  0.000000  0.000000  0.000000  0.000000  ;
  7  5  31020.560435  0.000000  0.187959  0.000000  0.000000  0.000000  0.000000  0.000000  ;
  6  7  31851.675733  0.000000  0.259832  0.000000  0.000000  0.000000  0.000000  0.000000  ;
  7  6  30651.869213  0.000000  0.259502  0.000000  0.000000  0.000000  0.000000  0.000000  ;
  7  8  28500.000000  0.000000  0.194284  0.000000  0.000000  0.000000  0.000000  0.000000  ;
  8  7  28500.000000  0.000000  0.201222  0.000000  0.000000  0.000000  0.000000  0.000000  ;
