<NUMBER OF ZONES> 22
<TOTAL OD FLOW> 0.0
<END OF METADATA>


Origin  1  
1 :      0.0;    2 :      0.000000;    
3 :      3429.087759;    4 :      291.224450;    5 :      0.000000;    
6 :      1875.593056;    7 :      260.291368;    8 :      59.419363;    
9 :      0.000000;    10 :      0.000000;    11 :      0.000000;    
12 :      309.670065;    13 :      434.995022;    14 :      424.874070;    
15 :      0.000000;    16 :      426.765208;    17 :      149.636947;    
18 :      0.000000;    19 :      0.000000;    20 :      0.000000;    
21 :      0.000000;    22 :      0.000000;    

Origin  2  
2 :      0.0;    1 :      0.000000;    
3 :      385.616726;    4 :      817.955619;    5 :      118.469413;    
6 :      633.458400;    7 :      873.921276;    8 :      722.228892;    
9 :      0.000000;    10 :      0.000000;    11 :      599.114612;    
12 :      191.324342;    13 :      0.000000;    14 :      0.000000;    
15 :      40.017684;    16 :      0.000000;    17 :      0.000000;    
18 :      0.000000;    19 :      0.000000;    20 :      0.000000;    
21 :      0.000000;    22 :      0.000000;    

Origin  3  
3 :      0.0;    1 :      0.000000;    
2 :      0.000000;    4 :      0.000000;    5 :      0.000000;    
6 :      0.000000;    7 :      0.000000;    8 :      0.000000;    
9 :      0.000000;    10 :      0.000000;    11 :      0.000000;    
12 :      0.000000;    13 :      0.000000;    14 :      0.000000;    
15 :      0.000000;    16 :      0.000000;    17 :      0.000000;    
18 :      0.000000;    19 :      0.000000;    20 :      0.000000;    
21 :      0.000000;    22 :      0.000000;    

Origin  4  
4 :      0.0;    1 :      409.166070;    
2 :      0.000000;    3 :      0.000000;    5 :      0.000000;    
6 :      0.000000;    7 :      261.040077;    8 :      0.000000;    
9 :      0.000000;    10 :      0.000000;    11 :      0.000000;    
12 :      367.510197;    13 :      464.858777;    14 :      530.944554;    
15 :      0.000000;    16 :      488.169296;    17 :      170.855793;    
18 :      0.000000;    19 :      0.000000;    20 :      0.000000;    
21 :      0.000000;    22 :      0.000000;    

Origin  5  
5 :      0.0;    1 :      0.000000;    
2 :      0.000000;    3 :      0.000000;    4 :      278.226687;    
6 :      93.729465;    7 :      334.191962;    8 :      603.759474;    
9 :      0.000000;    10 :      0.000000;    11 :      59.385297;    
12 :      72.854924;    13 :      0.000000;    14 :      0.000000;    
15 :      0.000000;    16 :      0.000000;    17 :      0.000000;    
18 :      0.000000;    19 :      0.000000;    20 :      0.000000;    
21 :      0.000000;    22 :      0.000000;    

Origin  6  
6 :      0.0;    1 :      0.000000;    
2 :      0.000000;    3 :      1488.025316;    4 :      536.597939;    
5 :      0.000000;    7 :      30.652206;    8 :      440.871210;    
9 :      230.967314;    10 :      187.063663;    11 :      0.000000;    
12 :      0.000000;    13 :      0.000000;    14 :      0.000000;    
15 :      0.000000;    16 :      0.000000;    17 :      0.000000;    
18 :      0.000000;    19 :      0.000000;    20 :      0.000000;    
21 :      0.000000;    22 :      0.000000;    

Origin  7  
7 :      0.0;    1 :      241.957794;    
2 :      0.000000;    3 :      620.312033;    4 :      265.559764;    
5 :      0.000000;    6 :      0.000000;    8 :      0.000000;    
9 :      200.315108;    10 :      156.411457;    11 :      0.000000;    
12 :      509.148125;    13 :      979.675488;    14 :      1052.220177;    
15 :      0.000000;    16 :      665.297190;    17 :      267.414410;    
18 :      0.000000;    19 :      0.000000;    20 :      0.000000;    
21 :      0.000000;    22 :      0.000000;    

Origin  8  
8 :      0.0;    1 :      0.000000;    
2 :      0.000000;    3 :      0.000000;    4 :      419.729833;    
5 :      141.503147;    6 :      235.232611;    7 :      541.175371;    
9 :      324.584985;    10 :      295.706116;    11 :      559.980680;    
12 :      0.000000;    13 :      0.000000;    14 :      0.000000;    
15 :      0.000000;    16 :      256.344177;    17 :      134.095939;    
18 :      0.000000;    19 :      0.000000;    20 :      0.000000;    
21 :      0.000000;    22 :      0.000000;    

Origin  9  
9 :      0.0;    1 :      0.000000;    
2 :      0.000000;    3 :      836.902421;    4 :      0.000000;    
5 :      0.000000;    6 :      0.000000;    7 :      216.590386;    
8 :      0.000000;    10 :      0.000000;    11 :      0.000000;    
12 :      0.000000;    13 :      0.000000;    14 :      0.000000;    
15 :      0.000000;    16 :      0.000000;    17 :      0.000000;    
18 :      0.000000;    19 :      0.000000;    20 :      0.000000;    
21 :      0.000000;    22 :      0.000000;    

Origin  10  
10 :      0.0;    1 :      0.000000;    
2 :      0.000000;    3 :      865.781289;    4 :      0.000000;    
5 :      0.000000;    6 :      0.000000;    7 :      245.469254;    
8 :      0.000000;    9 :      28.878868;    11 :      264.274564;    
12 :      0.000000;    13 :      0.000000;    14 :      0.000000;    
15 :      0.000000;    16 :      0.000000;    17 :      0.000000;    
18 :      0.000000;    19 :      0.000000;    20 :      0.000000;    
21 :      0.000000;    22 :      0.000000;    

Origin  11  
11 :      0.0;    1 :      0.000000;    
2 :      0.000000;    3 :      455.182703;    4 :      0.000000;    
5 :      0.000000;    6 :      0.000000;    7 :      0.000000;    
8 :      328.381415;    9 :      35.185775;    10 :      615.461204;    
12 :      0.000000;    13 :      0.000000;    14 :      0.000000;    
15 :      300.945899;    16 :      0.000000;    17 :      0.000000;    
18 :      0.000000;    19 :      0.000000;    20 :      0.000000;    
21 :      0.000000;    22 :      0.000000;    

Origin  12  
12 :      0.0;    1 :      152.363082;    
2 :      0.000000;    3 :      0.000000;    4 :      196.618370;    
5 :      847.816703;    6 :      0.000000;    7 :      221.053208;    
8 :      706.313556;    9 :      0.000000;    10 :      0.000000;    
11 :      0.000000;    13 :      222.855166;    14 :      289.819588;    
15 :      0.000000;    16 :      326.671120;    17 :      153.400143;    
18 :      0.000000;    19 :      0.000000;    20 :      0.000000;    
21 :      0.000000;    22 :      0.000000;    

Origin  13  
13 :      0.0;    1 :      299.466306;    
2 :      0.000000;    3 :      170.449233;    4 :      319.298303;    
5 :      0.000000;    6 :      0.000000;    7 :      458.983248;    
8 :      0.000000;    9 :      0.000000;    10 :      0.000000;    
11 :      0.000000;    12 :      378.363412;    14 :      622.082923;    
15 :      0.000000;    16 :      720.611706;    17 :      312.003837;    
18 :      0.000000;    19 :      0.000000;    20 :      0.000000;    
21 :      0.000000;    22 :      0.000000;    

Origin  14  
14 :      0.0;    1 :      259.303116;    
2 :      0.000000;    3 :      812.055559;    4 :      369.563951;    
5 :      0.000000;    6 :      0.000000;    7 :      486.607842;    
8 :      0.000000;    9 :      392.058637;    10 :      0.000000;    
11 :      356.872861;    12 :      518.707634;    13 :      603.582818;    
15 :      74.767327;    16 :      588.114706;    17 :      203.854690;    
18 :      0.000000;    19 :      0.000000;    20 :      0.000000;    
21 :      0.000000;    22 :      0.000000;    

Origin  15  
15 :      0.0;    1 :      0.000000;    
2 :      0.000000;    3 :      0.000000;    4 :      0.000000;    
5 :      0.000000;    6 :      0.000000;    7 :      0.000000;    
8 :      0.000000;    9 :      0.000000;    10 :      0.000000;    
11 :      0.000000;    12 :      0.000000;    13 :      0.000000;    
14 :      0.000000;    16 :      11.895032;    17 :      816.307141;    
18 :      0.000000;    19 :      0.000000;    20 :      0.000000;    
21 :      0.000000;    22 :      0.000000;    

Origin  16  
16 :      0.0;    1 :      344.872005;    
2 :      0.000000;    3 :      0.000000;    4 :      409.601553;    
5 :      0.000000;    6 :      0.000000;    7 :      571.469713;    
8 :      0.000000;    9 :      0.000000;    10 :      0.000000;    
11 :      0.000000;    12 :      414.307489;    13 :      679.602440;    
14 :      1297.104430;    15 :      0.000000;    17 :      151.031323;    
18 :      0.000000;    19 :      0.000000;    20 :      0.000000;    
21 :      0.000000;    22 :      0.000000;    

Origin  17  
17 :      0.0;    1 :      191.689866;    
2 :      0.000000;    3 :      0.000000;    4 :      187.745738;    
5 :      0.000000;    6 :      0.000000;    7 :      411.866089;    
8 :      0.000000;    9 :      0.000000;    10 :      0.000000;    
11 :      0.000000;    12 :      306.967843;    13 :      321.611775;    
14 :      453.230760;    15 :      265.590721;    16 :      339.331443;    
18 :      0.000000;    19 :      0.000000;    20 :      0.000000;    
21 :      0.000000;    22 :      0.000000;    

Origin  18  
18 :      0.0;    1 :      0.000000;    
2 :      0.000000;    3 :      0.000000;    4 :      0.000000;    
5 :      0.000000;    6 :      0.000000;    7 :      0.000000;    
8 :      0.000000;    9 :      0.000000;    10 :      0.000000;    
11 :      0.000000;    12 :      0.000000;    13 :      0.000000;    
14 :      0.000000;    15 :      0.000000;    16 :      0.000000;    
17 :      0.000000;    19 :      0.000000;    20 :      0.000000;    
21 :      0.000000;    22 :      0.000000;    

Origin  19  
19 :      0.0;    1 :      0.000000;    
2 :      0.000000;    3 :      0.000000;    4 :      0.000000;    
5 :      0.000000;    6 :      0.000000;    7 :      0.000000;    
8 :      0.000000;    9 :      0.000000;    10 :      0.000000;    
11 :      0.000000;    12 :      0.000000;    13 :      0.000000;    
14 :      0.000000;    15 :      0.000000;    16 :      0.000000;    
17 :      0.000000;    18 :      0.000000;    20 :      0.000000;    
21 :      0.000000;    22 :      0.000000;    

Origin  20  
20 :      0.0;    1 :      0.000000;    
2 :      0.000000;    3 :      0.000000;    4 :      0.000000;    
5 :      0.000000;    6 :      0.000000;    7 :      0.000000;    
8 :      0.000000;    9 :      0.000000;    10 :      0.000000;    
11 :      0.000000;    12 :      0.000000;    13 :      0.000000;    
14 :      0.000000;    15 :      0.000000;    16 :      0.000000;    
17 :      0.000000;    18 :      0.000000;    19 :      0.000000;    
21 :      0.000000;    22 :      0.000000;    

Origin  21  
21 :      0.0;    1 :      0.000000;    
2 :      0.000000;    3 :      0.000000;    4 :      0.000000;    
5 :      0.000000;    6 :      0.000000;    7 :      0.000000;    
8 :      0.000000;    9 :      0.000000;    10 :      0.000000;    
11 :      0.000000;    12 :      0.000000;    13 :      0.000000;    
14 :      0.000000;    15 :      0.000000;    16 :      0.000000;    
17 :      0.000000;    18 :      0.000000;    19 :      0.000000;    
20 :      0.000000;    22 :      0.000000;    

Origin  22  
22 :      0.0;    1 :      0.000000;    
2 :      0.000000;    3 :      0.000000;    4 :      0.000000;    
5 :      0.000000;    6 :      0.000000;    7 :      0.000000;    
8 :      0.000000;    9 :      0.000000;    10 :      0.000000;    
11 :      0.000000;    12 :      0.000000;    13 :      0.000000;    
14 :      0.000000;    15 :      0.000000;    16 :      0.000000;    
17 :      0.000000;    18 :      0.000000;    19 :      0.000000;    
20 :      0.000000;    21 :      0.000000;    

