<NUMBER OF ZONES> 8
<TOTAL OD FLOW> 0.0
<END OF METADATA>


Origin  1  
1 :      0.0;    2 :      0.000000;    
3 :      3013.482564;    4 :      0.000000;    5 :      579.252423;    
6 :      0.000701;    7 :      1300.058817;    8 :      0.000000;    


Origin  2  
2 :      0.0;    1 :      0.000184;    3 :      0.003275;    4 :      2595.768925;    
5 :      96.974354;    6 :      0.000463;    7 :      0.003293;    
8 :      0.003285;    

Origin  3  
3 :      0.0;    1 :      2867.883984;    2 :      0.246425;    
4 :      0.000982;    5 :      0.000983;    6 :      1153.923623;    
7 :      169.201045;    8 :      2429.264405;    

Origin  4  
4 :      0.0;    1 :      1352.441745;    
2 :      1276.007714;    3 :      0.000065;    5 :      2119.581450;    
6 :      0.004594;    7 :      0.001996;    8 :      2343.332253;    


Origin  5  
5 :      0.0;    1 :      626.591990;    2 :      0.117928;    3 :      0.132901;    
4 :      2333.821758;    6 :      2037.939991;    7 :      0.001973;    
8 :      0.001964;    

Origin  6  
6 :      0.0;    1 :      0.000014;    2 :      0.000014;    
3 :      0.000014;    4 :      3.207891;    5 :      1563.520091;    
7 :      1035.028497;    8 :      0.109861;    

Origin  7  
7 :      0.0;    1 :      0.861481;    
2 :      0.277936;    3 :      2274.790056;    4 :      0.273355;    
5 :      79.611131;    6 :      646.803402;    8 :      0.206619;    


Origin  8  
8 :      0.0;    1 :      0.085073;    2 :      1789.697045;    3 :      660.236350;    
4 :      2277.129804;    5 :      0.054202;    6 :      0.175149;    
7 :      0.164346;    

