<NUMBER OF ZONES> 8
<TOTAL OD FLOW> 0.0
<END OF METADATA>


Origin  1  
1 :      0.0;    2 :      0.000000;    
3 :      0.335710;    4 :      0.000000;    5 :      0.000703;    
6 :      1355.406676;    7 :      5745.954318;    8 :      0.000000;    


Origin  2  
2 :      0.0;    1 :      0.000056;    3 :      0.000000;    4 :      3490.911529;    
5 :      0.000000;    6 :      0.000000;    7 :      0.000000;    
8 :      0.000000;    

Origin  3  
3 :      0.0;    1 :      1641.784874;    2 :      3124.988697;    
4 :      582.212871;    5 :      8.051661;    6 :      0.000478;    
7 :      2.831283;    8 :      839.578240;    

Origin  4  
4 :      0.0;    1 :      2295.520643;    
2 :      462.225047;    3 :      894.821398;    5 :      0.117631;    
6 :      2001.789605;    7 :      0.000218;    8 :      3250.504074;    


Origin  5  
5 :      0.0;    1 :      1.013621;    2 :      0.935808;    3 :      2.831089;    
4 :      259.122027;    6 :      1086.546637;    7 :      0.000214;    
8 :      0.000217;    

Origin  6  
6 :      0.0;    1 :      3.668427;    2 :      13.619583;    
3 :      3.892069;    4 :      2693.153021;    5 :      0.439585;    
7 :      664.914943;    8 :      434.334360;    

Origin  7  
7 :      0.0;    1 :      3405.772537;    
2 :      2.916976;    3 :      5.303796;    4 :      0.000003;    
5 :      0.000003;    6 :      361.075423;    8 :      2369.914873;    


Origin  8  
8 :      0.0;    1 :      0.008561;    2 :      0.758674;    3 :      3905.543966;    
4 :      3445.696632;    5 :      0.000003;    6 :      0.019978;    
7 :      0.016802;    

