<NUMBER OF ZONES> 8
<TOTAL OD FLOW> 0.0
<END OF METADATA>


Origin  1  
1 :      0.0;    2 :      0.000000;    
3 :      9418.640994;    4 :      0.000000;    5 :      0.000008;    
6 :      3200.082044;    7 :      0.000014;    8 :      0.000003;    


Origin  2  
2 :      0.0;    1 :      0.012220;    3 :      0.000000;    4 :      5226.363010;    
5 :      0.000000;    6 :      0.000000;    7 :      0.000000;    
8 :      0.000000;    

Origin  3  
3 :      0.0;    1 :      4901.779588;    2 :      1938.220287;    
4 :      0.000008;    5 :      0.000008;    6 :      4302.233930;    
7 :      14927.478691;    8 :      0.000014;    

Origin  4  
4 :      0.0;    1 :      3238.827084;    
2 :      2693.404720;    3 :      437.194783;    5 :      1551.992644;    
6 :      1162.837198;    7 :      566.276747;    8 :      4460.924888;    


Origin  5  
5 :      0.0;    1 :      0.469398;    2 :      1.889214;    3 :      1078.165256;    
4 :      2915.704021;    6 :      4498.134434;    7 :      603.630816;    
8 :      581.747787;    

Origin  6  
6 :      0.0;    1 :      3525.481100;    2 :      1616.620014;    
3 :      0.000236;    4 :      1375.929973;    5 :      3310.945385;    
7 :      6246.669055;    8 :      1501.102130;    

Origin  7  
7 :      0.0;    1 :      0.000097;    
2 :      0.000097;    3 :      12541.103547;    4 :      0.000055;    
5 :      0.000055;    6 :      4012.181911;    8 :      2806.642356;    


Origin  8  
8 :      0.0;    1 :      0.000098;    2 :      0.000098;    3 :      0.000097;    
4 :      3805.263371;    5 :      0.000055;    6 :      1538.956758;    
7 :      3097.605611;    

