<NUMBER OF ZONES> 8
<TOTAL OD FLOW> 0.0
<END OF METADATA>


Origin  1  
1 :      0.0;    2 :      0.000000;    
3 :      6505.625138;    4 :      0.000000;    5 :      324.119144;    
6 :      3510.636100;    7 :      0.000013;    8 :      0.000000;    


Origin  2  
2 :      0.0;    1 :      0.000110;    3 :      784.298448;    4 :      5505.679322;    
5 :      545.861385;    6 :      644.451540;    7 :      0.000013;    
8 :      0.000013;    

Origin  3  
3 :      0.0;    1 :      6495.036650;    2 :      1955.317622;    
4 :      1309.396823;    5 :      5650.345892;    6 :      4540.724951;    
7 :      7879.250298;    8 :      0.000013;    

Origin  4  
4 :      0.0;    1 :      1140.144882;    
2 :      5157.920475;    3 :      5.305175;    5 :      3554.629159;    
6 :      4.479610;    7 :      0.000007;    8 :      2145.646748;    


Origin  5  
5 :      0.0;    1 :      0.396284;    2 :      0.419944;    3 :      4482.543837;    
4 :      2.892458;    6 :      7832.377834;    7 :      0.000007;    
8 :      0.000007;    

Origin  6  
6 :      0.0;    1 :      0.000000;    2 :      0.000000;    
3 :      0.000000;    4 :      6290.696700;    5 :      5.490076;    
7 :      6590.310685;    8 :      1214.560968;    

Origin  7  
7 :      0.0;    1 :      0.000001;    
2 :      0.000001;    3 :      14609.143728;    4 :      1061.906839;    
5 :      2256.327441;    6 :      3437.316665;    8 :      1545.069951;    


Origin  8  
8 :      0.0;    1 :      0.000001;    2 :      0.000001;    3 :      0.000001;    
4 :      2476.706110;    5 :      1648.268175;    6 :      1396.676120;    
7 :      2485.573221;    

