<NUMBER OF ZONES> 8
<TOTAL OD FLOW> 0.0
<END OF METADATA>


Origin  1  
1 :      0.0;    2 :      0.000000;    
3 :      1285.004890;    4 :      0.000000;    5 :      0.015048;    
6 :      1372.526704;    7 :      0.021566;    8 :      0.000000;    


Origin  2  
2 :      0.0;    1 :      0.000010;    3 :      0.000000;    4 :      1327.684628;    
5 :      0.000000;    6 :      0.000000;    7 :      0.000000;    
8 :      0.000000;    

Origin  3  
3 :      0.0;    1 :      1780.020674;    2 :      974.297972;    
4 :      0.034468;    5 :      1556.166638;    6 :      0.010607;    
7 :      0.022750;    8 :      0.018001;    

Origin  4  
4 :      0.0;    1 :      774.710288;    
2 :      589.639196;    3 :      615.634741;    5 :      0.030613;    
6 :      0.028285;    7 :      460.160274;    8 :      1242.134799;    


Origin  5  
5 :      0.0;    1 :      0.010808;    2 :      0.014437;    3 :      0.018208;    
4 :      1261.035528;    6 :      1236.685360;    7 :      909.920810;    
8 :      0.058617;    

Origin  6  
6 :      0.0;    1 :      0.000001;    2 :      0.000001;    
3 :      0.000001;    4 :      0.033054;    5 :      988.297392;    
7 :      974.255277;    8 :      224.027838;    

Origin  7  
7 :      0.0;    1 :      0.310849;    
2 :      2.989572;    3 :      678.227412;    4 :      0.036579;    
5 :      586.800892;    6 :      403.244114;    8 :      910.045303;    


Origin  8  
8 :      0.0;    1 :      0.001895;    2 :      0.011377;    3 :      1214.582013;    
4 :      1239.237650;    5 :      0.004602;    6 :      0.004599;    
7 :      0.004754;    

