<NUMBER OF ZONES> 8
<TOTAL OD FLOW> 0.0
<END OF METADATA>


Origin  1  
1 :      0.0;    2 :      0.000000;    
3 :      1450.278726;    4 :      0.000000;    5 :      0.000431;    
6 :      1183.244512;    7 :      0.000724;    8 :      0.000000;    


Origin  2  
2 :      0.0;    1 :      0.000124;    3 :      0.003789;    4 :      1225.149804;    
5 :      187.760549;    6 :      0.000248;    7 :      0.000610;    
8 :      0.000687;    

Origin  3  
3 :      0.0;    1 :      1868.961012;    2 :      950.238502;    
4 :      0.654532;    5 :      269.721287;    6 :      0.000294;    
7 :      0.000724;    8 :      0.000714;    

Origin  4  
4 :      0.0;    1 :      751.858263;    
2 :      576.836493;    3 :      0.043055;    5 :      371.066182;    
6 :      676.630352;    7 :      0.006021;    8 :      1210.740907;    


Origin  5  
5 :      0.0;    1 :      0.032162;    2 :      0.025846;    3 :      893.948182;    
4 :      1171.768499;    6 :      0.035343;    7 :      256.023382;    
8 :      1228.906774;    

Origin  6  
6 :      0.0;    1 :      0.000001;    2 :      0.000001;    
3 :      0.000001;    4 :      0.052470;    5 :      394.279430;    
7 :      846.656103;    8 :      0.029674;    

Origin  7  
7 :      0.0;    1 :      0.004896;    
2 :      0.004870;    3 :      0.005309;    4 :      0.075989;    
5 :      707.246442;    6 :      241.322360;    8 :      0.026334;    


Origin  8  
8 :      0.0;    1 :      0.003610;    2 :      0.010956;    3 :      1206.133517;    
4 :      1287.691996;    5 :      54.193745;    6 :      64.097291;    
7 :      60.439819;    

