<NUMBER OF ZONES> 12
<TOTAL OD FLOW> 360600.0
<END OF METADATA>


Origin 	1 
    1 :      0.0;     2 :    100.0;     3 :    100.0;     4 :    500.0;     5 :    200.0; 
    6 :    300.0;     7 :    500.0;     8 :    800.0;     9 :    500.0;    10 :   1300.0; 
   11 :    500.0;    12 :    200.0;

Origin 	2 
    1 :    100.0;     2 :      0.0;     3 :    100.0;     4 :    200.0;     5 :    100.0; 
    6 :    400.0;     7 :    200.0;     8 :    400.0;     9 :    200.0;    10 :    600.0; 
   11 :    200.0;    12 :    100.0;

Origin 	3 
    1 :    100.0;     2 :    100.0;     3 :      0.0;     4 :    200.0;     5 :    100.0; 
    6 :    300.0;     7 :    100.0;     8 :    200.0;     9 :    100.0;    10 :    300.0; 
   11 :    300.0;    12 :    200.0;

Origin 	4 
    1 :    500.0;     2 :    200.0;     3 :    200.0;     4 :      0.0;     5 :    500.0; 
    6 :    400.0;     7 :    400.0;     8 :    700.0;     9 :    700.0;    10 :   1200.0; 
   11 :   1400.0;    12 :    600.0;

Origin 	5 
    1 :    200.0;     2 :    100.0;     3 :    100.0;     4 :    500.0;     5 :      0.0; 
    6 :    200.0;     7 :    200.0;     8 :    500.0;     9 :    800.0;    10 :   1000.0; 
   11 :    500.0;    12 :    200.0;

Origin 	6 
    1 :    300.0;     2 :    400.0;     3 :    300.0;     4 :    400.0;     5 :    200.0; 
    6 :      0.0;     7 :    400.0;     8 :    800.0;     9 :    400.0;    10 :    800.0; 
   11 :    400.0;    12 :    200.0;

Origin 	7 
    1 :    500.0;     2 :    200.0;     3 :    100.0;     4 :    400.0;     5 :    200.0; 
    6 :    400.0;     7 :      0.0;     8 :   1000.0;     9 :    600.0;    10 :   1900.0; 
   11 :    500.0;    12 :    700.0;

Origin 	8 
    1 :    800.0;     2 :    400.0;     3 :    200.0;     4 :    700.0;     5 :    500.0; 
    6 :    800.0;     7 :   1000.0;     8 :      0.0;     9 :    800.0;    10 :   1600.0; 
   11 :    800.0;    12 :    600.0;

Origin 	9 
    1 :    500.0;     2 :    200.0;     3 :    100.0;     4 :    700.0;     5 :    800.0; 
    6 :    400.0;     7 :    600.0;     8 :    800.0;     9 :      0.0;    10 :   2800.0; 
   11 :   1400.0;    12 :    600.0;

Origin 	10 
    1 :   1300.0;     2 :    600.0;     3 :    300.0;     4 :   1200.0;     5 :   1000.0; 
    6 :    800.0;     7 :   1900.0;     8 :   1600.0;     9 :   2800.0;    10 :      0.0; 
   11 :   4000.0;    12 :   2000.0;

Origin 	11 
    1 :    500.0;     2 :    200.0;     3 :    300.0;     4 :   1500.0;     5 :    500.0; 
    6 :    400.0;     7 :    500.0;     8 :    800.0;     9 :   1400.0;    10 :   3900.0; 
   11 :      0.0;    12 :   1400.0;

Origin 	12 
    1 :    200.0;     2 :    100.0;     3 :    200.0;     4 :    600.0;     5 :    200.0; 
    6 :    200.0;     7 :    700.0;     8 :    600.0;     9 :    600.0;    10 :   2000.0; 
   11 :   1400.0;    12 :      0.0;

