<NUMBER OF ZONES> 8
<NUMBER OF ZONES> 8
<FIRST THRU NODE> 1
<NUMBER OF LINKS> 24
<NUMBER OF ZONES> 8
<END OF METADATA>


~  Init node  Term node  Capacity  Length  Free Flow Time  B  Power  Speed limit  Toll  Type  ;
  1  2  5881.034447  0.000000  0.294839  0.000000  0.000000  0.000000  0.000000  0.000000  ;
  2  1  5723.731909  0.000000  0.314894  0.000000  0.000000  0.000000  0.000000  0.000000  ;
  1  3  7257.787497  0.000000  0.437603  0.000000  0.000000  0.000000  0.000000  0.000000  ;
  3  1  7352.885308  0.000000  0.446230  0.000000  0.000000  0.000000  0.000000  0.000000  ;
  2  3  7534.313773  0.000000  0.136564  0.000000  0.000000  0.000000  0.000000  0.000000  ;
  3  2  6877.153389  0.000000  0.162954  0.000000  0.000000  0.000000  0.000000  0.000000  ;
  2  4  6144.810697  0.000000  0.512348  0.000000  0.000000  0.000000  0.000000  0.000000  ;
  4  2  6141.052266  0.000000  0.528436  0.000000  0.000000  0.000000  0.000000  0.000000  ;
  3  5  7977.673839  0.000000  0.226178  0.000000  0.000000  0.000000  0.000000  0.000000  ;
  5  3  7839.682291  0.000000  0.236022  0.000000  0.000000  0.000000  0.000000  0.000000  ;
  3  6  7574.678154  0.000000  0.187778  0.000000  0.000000  0.000000  0.000000  0.000000  ;
  6  3  6560.506399  0.000000  0.193503  0.000000  0.000000  0.000000  0.000000  0.000000  ;
  4  5  5758.189482  0.000000  0.232767  0.000000  0.000000  0.000000  0.000000  0.000000  ;
  5  4  6409.613960  0.000000  0.238257  0.000000  0.000000  0.000000  0.000000  0.000000  ;
  5  6  5930.992652  0.000000  0.166785  0.000000  0.000000  0.000000  0.000000  0.000000  ;
  6  5  4755.889281  0.000000  0.164794  0.000000  0.000000  0.000000  0.000000  0.000000  ;
  4  8  6000.000000  0.000000  0.330009  0.000000  0.000000  0.000000  0.000000  0.000000  ;
  8  4  6000.000000  0.000000  0.329602  0.000000  0.000000  0.000000  0.000000  0.000000  ;
  5  7  7240.183054  0.000000  0.178723  0.000000  0.000000  0.000000  0.000000  0.000000  ;
  7  5  7284.734190  0.000000  0.177963  0.000000  0.000000  0.000000  0.000000  0.000000  ;
  6  7  6927.242317  0.000000  0.245841  0.000000  0.000000  0.000000  0.000000  0.000000  ;
  7  6  6690.819387  0.000000  0.244939  0.000000  0.000000  0.000000  0.000000  0.000000  ;
  7  8  6000.000000  0.000000  0.187180  0.000000  0.000000  0.000000  0.000000  0.000000  ;
  8  7  6000.000000  0.000000  0.192552  0.000000  0.000000  0.000000  0.000000  0.000000  ;
