<NUMBER OF ZONES> 22
<TOTAL OD FLOW> 0.0
<END OF METADATA>


Origin  1  
1 :      0.0;    2 :      0.000000;    
3 :      0.000000;    4 :      364.030563;    5 :      0.000000;    
6 :      0.000000;    7 :      325.364210;    8 :      0.000000;    
9 :      0.000000;    10 :      0.000000;    11 :      0.000000;    
12 :      387.087581;    13 :      543.743778;    14 :      531.092588;    
15 :      0.000000;    16 :      533.456510;    17 :      187.046184;    
18 :      0.000000;    19 :      0.000000;    20 :      0.000000;    
21 :      0.000000;    22 :      0.000000;    

Origin  2  
2 :      0.0;    1 :      0.000000;    
3 :      0.000000;    4 :      0.000000;    5 :      0.000000;    
6 :      0.000000;    7 :      0.000000;    8 :      0.000000;    
9 :      0.000000;    10 :      0.000000;    11 :      0.000000;    
12 :      0.000000;    13 :      0.000000;    14 :      0.000000;    
15 :      0.000000;    16 :      0.000000;    17 :      0.000000;    
18 :      0.000000;    19 :      0.000000;    20 :      0.000000;    
21 :      0.000000;    22 :      0.000000;    

Origin  3  
3 :      0.0;    1 :      0.000000;    
2 :      0.000000;    4 :      0.000000;    5 :      0.000000;    
6 :      0.000000;    7 :      0.000000;    8 :      0.000000;    
9 :      0.000000;    10 :      0.000000;    11 :      0.000000;    
12 :      0.000000;    13 :      0.000000;    14 :      0.000000;    
15 :      0.000000;    16 :      0.000000;    17 :      0.000000;    
18 :      0.000000;    19 :      0.000000;    20 :      0.000000;    
21 :      0.000000;    22 :      0.000000;    

Origin  4  
4 :      0.0;    1 :      511.457588;    
2 :      0.000000;    3 :      0.000000;    5 :      0.000000;    
6 :      0.000000;    7 :      326.300096;    8 :      0.000000;    
9 :      0.000000;    10 :      0.000000;    11 :      0.000000;    
12 :      459.387746;    13 :      581.073471;    14 :      663.680693;    
15 :      0.000000;    16 :      610.211620;    17 :      213.569741;    
18 :      0.000000;    19 :      0.000000;    20 :      0.000000;    
21 :      0.000000;    22 :      0.000000;    

Origin  5  
5 :      0.0;    1 :      0.000000;    
2 :      0.000000;    3 :      0.000000;    4 :      0.000000;    
6 :      0.000000;    7 :      0.000000;    8 :      0.000000;    
9 :      0.000000;    10 :      0.000000;    11 :      0.000000;    
12 :      0.000000;    13 :      0.000000;    14 :      0.000000;    
15 :      0.000000;    16 :      0.000000;    17 :      0.000000;    
18 :      0.000000;    19 :      0.000000;    20 :      0.000000;    
21 :      0.000000;    22 :      0.000000;    

Origin  6  
6 :      0.0;    1 :      0.000000;    
2 :      0.000000;    3 :      0.000000;    4 :      0.000000;    
5 :      0.000000;    7 :      0.000000;    8 :      0.000000;    
9 :      0.000000;    10 :      0.000000;    11 :      0.000000;    
12 :      0.000000;    13 :      0.000000;    14 :      0.000000;    
15 :      0.000000;    16 :      0.000000;    17 :      0.000000;    
18 :      0.000000;    19 :      0.000000;    20 :      0.000000;    
21 :      0.000000;    22 :      0.000000;    

Origin  7  
7 :      0.0;    1 :      302.447243;    
2 :      0.000000;    3 :      0.000000;    4 :      331.949705;    
5 :      0.000000;    6 :      0.000000;    8 :      0.000000;    
9 :      0.000000;    10 :      0.000000;    11 :      0.000000;    
12 :      636.435156;    13 :      1224.594360;    14 :      1315.275222;    
15 :      0.000000;    16 :      831.621488;    17 :      334.268013;    
18 :      0.000000;    19 :      0.000000;    20 :      0.000000;    
21 :      0.000000;    22 :      0.000000;    

Origin  8  
8 :      0.0;    1 :      0.000000;    
2 :      0.000000;    3 :      0.000000;    4 :      0.000000;    
5 :      0.000000;    6 :      0.000000;    7 :      0.000000;    
9 :      0.000000;    10 :      0.000000;    11 :      0.000000;    
12 :      0.000000;    13 :      0.000000;    14 :      0.000000;    
15 :      0.000000;    16 :      0.000000;    17 :      0.000000;    
18 :      0.000000;    19 :      0.000000;    20 :      0.000000;    
21 :      0.000000;    22 :      0.000000;    

Origin  9  
9 :      0.0;    1 :      0.000000;    
2 :      0.000000;    3 :      0.000000;    4 :      0.000000;    
5 :      0.000000;    6 :      0.000000;    7 :      0.000000;    
8 :      0.000000;    10 :      0.000000;    11 :      0.000000;    
12 :      0.000000;    13 :      0.000000;    14 :      0.000000;    
15 :      0.000000;    16 :      0.000000;    17 :      0.000000;    
18 :      0.000000;    19 :      0.000000;    20 :      0.000000;    
21 :      0.000000;    22 :      0.000000;    

Origin  10  
10 :      0.0;    1 :      0.000000;    
2 :      0.000000;    3 :      0.000000;    4 :      0.000000;    
5 :      0.000000;    6 :      0.000000;    7 :      0.000000;    
8 :      0.000000;    9 :      0.000000;    11 :      0.000000;    
12 :      0.000000;    13 :      0.000000;    14 :      0.000000;    
15 :      0.000000;    16 :      0.000000;    17 :      0.000000;    
18 :      0.000000;    19 :      0.000000;    20 :      0.000000;    
21 :      0.000000;    22 :      0.000000;    

Origin  11  
11 :      0.0;    1 :      0.000000;    
2 :      0.000000;    3 :      0.000000;    4 :      0.000000;    
5 :      0.000000;    6 :      0.000000;    7 :      0.000000;    
8 :      0.000000;    9 :      0.000000;    10 :      0.000000;    
12 :      0.000000;    13 :      0.000000;    14 :      0.000000;    
15 :      0.000000;    16 :      0.000000;    17 :      0.000000;    
18 :      0.000000;    19 :      0.000000;    20 :      0.000000;    
21 :      0.000000;    22 :      0.000000;    

Origin  12  
12 :      0.0;    1 :      190.453853;    
2 :      0.000000;    3 :      0.000000;    4 :      163.848642;    
5 :      0.000000;    6 :      0.000000;    7 :      276.316510;    
8 :      0.000000;    9 :      0.000000;    10 :      0.000000;    
11 :      0.000000;    13 :      278.568958;    14 :      362.274485;    
15 :      0.000000;    16 :      272.225933;    17 :      127.833452;    
18 :      0.000000;    19 :      0.000000;    20 :      0.000000;    
21 :      0.000000;    22 :      0.000000;    

Origin  13  
13 :      0.0;    1 :      374.332883;    
2 :      0.000000;    3 :      0.000000;    4 :      399.122878;    
5 :      0.000000;    6 :      0.000000;    7 :      573.729060;    
8 :      0.000000;    9 :      0.000000;    10 :      0.000000;    
11 :      0.000000;    12 :      472.954265;    14 :      777.603654;    
15 :      0.000000;    16 :      600.509755;    17 :      260.003198;    
18 :      0.000000;    19 :      0.000000;    20 :      0.000000;    
21 :      0.000000;    22 :      0.000000;    

Origin  14  
14 :      0.0;    1 :      324.128895;    
2 :      0.000000;    3 :      0.000000;    4 :      461.954939;    
5 :      0.000000;    6 :      0.000000;    7 :      608.259803;    
8 :      0.000000;    9 :      0.000000;    10 :      0.000000;    
11 :      0.000000;    12 :      648.384543;    13 :      754.478522;    
15 :      0.000000;    16 :      735.143382;    17 :      254.818363;    
18 :      0.000000;    19 :      0.000000;    20 :      0.000000;    
21 :      0.000000;    22 :      0.000000;    

Origin  15  
15 :      0.0;    1 :      0.000000;    
2 :      0.000000;    3 :      0.000000;    4 :      0.000000;    
5 :      0.000000;    6 :      0.000000;    7 :      0.000000;    
8 :      0.000000;    9 :      0.000000;    10 :      0.000000;    
11 :      0.000000;    12 :      0.000000;    13 :      0.000000;    
14 :      0.000000;    16 :      0.000000;    17 :      0.000000;    
18 :      0.000000;    19 :      0.000000;    20 :      0.000000;    
21 :      0.000000;    22 :      0.000000;    

Origin  16  
16 :      0.0;    1 :      431.090006;    
2 :      0.000000;    3 :      0.000000;    4 :      512.001942;    
5 :      0.000000;    6 :      0.000000;    7 :      714.337142;    
8 :      0.000000;    9 :      0.000000;    10 :      0.000000;    
11 :      0.000000;    12 :      517.884361;    13 :      849.503050;    
14 :      1621.380537;    15 :      0.000000;    17 :      188.789153;    
18 :      0.000000;    19 :      0.000000;    20 :      0.000000;    
21 :      0.000000;    22 :      0.000000;    

Origin  17  
17 :      0.0;    1 :      239.612332;    
2 :      0.000000;    3 :      0.000000;    4 :      234.682173;    
5 :      0.000000;    6 :      0.000000;    7 :      514.832611;    
8 :      0.000000;    9 :      0.000000;    10 :      0.000000;    
11 :      0.000000;    12 :      383.709803;    13 :      402.014719;    
14 :      566.538450;    15 :      0.000000;    16 :      282.776202;    
18 :      0.000000;    19 :      0.000000;    20 :      0.000000;    
21 :      0.000000;    22 :      0.000000;    

Origin  18  
18 :      0.0;    1 :      0.000000;    
2 :      0.000000;    3 :      0.000000;    4 :      0.000000;    
5 :      0.000000;    6 :      0.000000;    7 :      0.000000;    
8 :      0.000000;    9 :      0.000000;    10 :      0.000000;    
11 :      0.000000;    12 :      0.000000;    13 :      0.000000;    
14 :      0.000000;    15 :      0.000000;    16 :      0.000000;    
17 :      0.000000;    19 :      0.000000;    20 :      0.000000;    
21 :      0.000000;    22 :      0.000000;    

Origin  19  
19 :      0.0;    1 :      0.000000;    
2 :      0.000000;    3 :      0.000000;    4 :      0.000000;    
5 :      0.000000;    6 :      0.000000;    7 :      0.000000;    
8 :      0.000000;    9 :      0.000000;    10 :      0.000000;    
11 :      0.000000;    12 :      0.000000;    13 :      0.000000;    
14 :      0.000000;    15 :      0.000000;    16 :      0.000000;    
17 :      0.000000;    18 :      0.000000;    20 :      0.000000;    
21 :      0.000000;    22 :      0.000000;    

Origin  20  
20 :      0.0;    1 :      0.000000;    
2 :      0.000000;    3 :      0.000000;    4 :      0.000000;    
5 :      0.000000;    6 :      0.000000;    7 :      0.000000;    
8 :      0.000000;    9 :      0.000000;    10 :      0.000000;    
11 :      0.000000;    12 :      0.000000;    13 :      0.000000;    
14 :      0.000000;    15 :      0.000000;    16 :      0.000000;    
17 :      0.000000;    18 :      0.000000;    19 :      0.000000;    
21 :      0.000000;    22 :      0.000000;    

Origin  21  
21 :      0.0;    1 :      0.000000;    
2 :      0.000000;    3 :      0.000000;    4 :      0.000000;    
5 :      0.000000;    6 :      0.000000;    7 :      0.000000;    
8 :      0.000000;    9 :      0.000000;    10 :      0.000000;    
11 :      0.000000;    12 :      0.000000;    13 :      0.000000;    
14 :      0.000000;    15 :      0.000000;    16 :      0.000000;    
17 :      0.000000;    18 :      0.000000;    19 :      0.000000;    
20 :      0.000000;    22 :      0.000000;    

Origin  22  
22 :      0.0;    1 :      0.000000;    
2 :      0.000000;    3 :      0.000000;    4 :      0.000000;    
5 :      0.000000;    6 :      0.000000;    7 :      0.000000;    
8 :      0.000000;    9 :      0.000000;    10 :      0.000000;    
11 :      0.000000;    12 :      0.000000;    13 :      0.000000;    
14 :      0.000000;    15 :      0.000000;    16 :      0.000000;    
17 :      0.000000;    18 :      0.000000;    19 :      0.000000;    
20 :      0.000000;    21 :      0.000000;    

