<NUMBER OF ZONES> 8
<TOTAL OD FLOW> 0.0
<END OF METADATA>


Origin  1  
1 :      0.0;    2 :      364.030563;    
3 :      325.364210;    4 :      387.087581;    5 :      543.743778;    
6 :      531.092588;    7 :      533.456510;    8 :      187.046184;    


Origin  2  
2 :      0.0;    1 :      511.457588;    3 :      326.300096;    4 :      459.387746;    
5 :      581.073471;    6 :      663.680693;    7 :      610.211620;    
8 :      213.569741;    

Origin  3  
3 :      0.0;    1 :      302.447243;    2 :      331.949705;    
4 :      636.435156;    5 :      1224.594360;    6 :      1315.275222;    
7 :      831.621488;    8 :      334.268013;    

Origin  4  
4 :      0.0;    1 :      190.453853;    
2 :      163.848642;    3 :      276.316510;    5 :      278.568958;    
6 :      362.274485;    7 :      272.225933;    8 :      127.833452;    


Origin  5  
5 :      0.0;    1 :      374.332883;    2 :      399.122878;    3 :      573.729060;    
4 :      472.954265;    6 :      777.603654;    7 :      600.509755;    
8 :      260.003198;    

Origin  6  
6 :      0.0;    1 :      324.128895;    2 :      461.954939;    
3 :      608.259803;    4 :      648.384543;    5 :      754.478522;    
7 :      735.143382;    8 :      254.818363;    

Origin  7  
7 :      0.0;    1 :      431.090006;    
2 :      512.001942;    3 :      714.337142;    4 :      517.884361;    
5 :      849.503050;    6 :      1621.380537;    8 :      188.789153;    


Origin  8  
8 :      0.0;    1 :      239.612332;    2 :      234.682173;    3 :      514.832611;    
4 :      383.709803;    5 :      402.014719;    6 :      566.538450;    
7 :      282.776202;    

