<NUMBER OF ZONES> 74
<NUMBER OF ZONES> 74
<FIRST THRU NODE> 1
<NUMBER OF LINKS> 258
<NUMBER OF ZONES> 74
<END OF METADATA>


~	Init node	Term node	Capacity	Length	Free Flow Time	B	Power	Speed limit	Toll  Type
	1	3	4938.061313	16.106817	0.238965	0.000000	0.000000	0.000000	0.000000	0.000000	;
	3	1	5254.128510	16.057131	0.240297	0.000000	0.000000	0.000000	0.000000	0.000000	;
	1	7	7309.824721	16.058740	0.222813	0.000000	0.000000	0.000000	0.000000	0.000000	;
	7	1	7388.626964	15.865263	0.218902	0.000000	0.000000	0.000000	0.000000	0.000000	;
	1	9	1164.374840	17.455401	0.402046	0.000000	0.000000	0.000000	0.000000	0.000000	;
	9	1	1076.221509	17.450099	0.403219	0.000000	0.000000	0.000000	0.000000	0.000000	;
	2	3	885.069883	3.874725	0.106992	0.000000	0.000000	0.000000	0.000000	0.000000	;
	3	2	879.337660	3.975121	0.108032	0.000000	0.000000	0.000000	0.000000	0.000000	;
	3	6	5963.515309	7.587822	0.109499	0.000000	0.000000	0.000000	0.000000	0.000000	;
	6	3	6000.000000	7.447450	0.107665	0.000000	0.000000	0.000000	0.000000	0.000000	;
	3	7	870.143949	11.592971	0.349058	0.000000	0.000000	0.000000	0.000000	0.000000	;
	7	3	987.279904	11.736039	0.346955	0.000000	0.000000	0.000000	0.000000	0.000000	;
	4	6	1397.463467	3.509127	0.153312	0.000000	0.000000	0.000000	0.000000	0.000000	;
	6	4	1032.232650	3.509127	0.151643	0.000000	0.000000	0.000000	0.000000	0.000000	;
	4	8	5955.227565	6.269461	0.089394	0.000000	0.000000	0.000000	0.000000	0.000000	;
	8	4	6223.710971	6.412615	0.090973	0.000000	0.000000	0.000000	0.000000	0.000000	;
	5	10	3970.233407	10.449604	0.151020	0.000000	0.000000	0.000000	0.000000	0.000000	;
	10	5	3954.624913	10.554494	0.148699	0.000000	0.000000	0.000000	0.000000	0.000000	;
	5	11	934.463935	11.677805	0.382470	0.000000	0.000000	0.000000	0.000000	0.000000	;
	11	5	882.819848	11.588228	0.374745	0.000000	0.000000	0.000000	0.000000	0.000000	;
	6	8	6000.000000	2.959879	0.043012	0.000000	0.000000	0.000000	0.000000	0.000000	;
	8	6	6000.000000	2.647408	0.038664	0.000000	0.000000	0.000000	0.000000	0.000000	;
	6	13	2232.228547	11.650116	0.283196	0.000000	0.000000	0.000000	0.000000	0.000000	;
	13	6	1834.137753	11.522613	0.279406	0.000000	0.000000	0.000000	0.000000	0.000000	;
	6	17	1370.884143	12.288557	0.364887	0.000000	0.000000	0.000000	0.000000	0.000000	;
	17	6	1245.949960	12.326099	0.361371	0.000000	0.000000	0.000000	0.000000	0.000000	;
	7	9	827.932876	4.074788	0.105565	0.000000	0.000000	0.000000	0.000000	0.000000	;
	9	7	825.000000	4.074788	0.104603	0.000000	0.000000	0.000000	0.000000	0.000000	;
	7	13	5919.941039	6.485868	0.088559	0.000000	0.000000	0.000000	0.000000	0.000000	;
	13	7	8000.000000	6.868068	0.092749	0.000000	0.000000	0.000000	0.000000	0.000000	;
	8	11	6000.000000	5.919129	0.085073	0.000000	0.000000	0.000000	0.000000	0.000000	;
	11	8	6000.000000	5.949186	0.085183	0.000000	0.000000	0.000000	0.000000	0.000000	;
	8	16	6064.219547	12.635124	0.177718	0.000000	0.000000	0.000000	0.000000	0.000000	;
	16	8	4445.015010	12.545210	0.176796	0.000000	0.000000	0.000000	0.000000	0.000000	;
	9	12	973.892640	5.229189	0.143440	0.000000	0.000000	0.000000	0.000000	0.000000	;
	12	9	970.976785	5.395143	0.142648	0.000000	0.000000	0.000000	0.000000	0.000000	;
	9	13	875.000000	2.987829	0.064058	0.000000	0.000000	0.000000	0.000000	0.000000	;
	13	9	875.000000	3.036319	0.065090	0.000000	0.000000	0.000000	0.000000	0.000000	;
	10	11	8000.000000	1.839467	0.026278	0.000000	0.000000	0.000000	0.000000	0.000000	;
	11	10	8000.000000	1.804264	0.026149	0.000000	0.000000	0.000000	0.000000	0.000000	;
	10	18	3900.000000	10.528474	0.151084	0.000000	0.000000	0.000000	0.000000	0.000000	;
	18	10	2913.625342	10.484211	0.149754	0.000000	0.000000	0.000000	0.000000	0.000000	;
	10	20	5719.303943	11.754735	0.166898	0.000000	0.000000	0.000000	0.000000	0.000000	;
	20	10	6009.002354	11.782103	0.169507	0.000000	0.000000	0.000000	0.000000	0.000000	;
	11	19	1124.407633	12.511216	0.375603	0.000000	0.000000	0.000000	0.000000	0.000000	;
	19	11	1617.706447	12.212523	0.372797	0.000000	0.000000	0.000000	0.000000	0.000000	;
	13	14	4394.231889	8.285083	0.135662	0.000000	0.000000	0.000000	0.000000	0.000000	;
	14	13	4320.225018	7.525413	0.125066	0.000000	0.000000	0.000000	0.000000	0.000000	;
	13	15	1910.935331	8.419362	0.285875	0.000000	0.000000	0.000000	0.000000	0.000000	;
	15	13	2863.541072	8.467007	0.296532	0.000000	0.000000	0.000000	0.000000	0.000000	;
	14	17	5946.288757	6.761203	0.101234	0.000000	0.000000	0.000000	0.000000	0.000000	;
	17	14	4904.241929	6.898849	0.105394	0.000000	0.000000	0.000000	0.000000	0.000000	;
	14	22	2840.485893	8.568056	0.152652	0.000000	0.000000	0.000000	0.000000	0.000000	;
	22	14	2895.846620	8.369572	0.146429	0.000000	0.000000	0.000000	0.000000	0.000000	;
	16	17	6321.013829	1.349797	0.021253	0.000000	0.000000	0.000000	0.000000	0.000000	;
	17	16	4209.453790	1.357842	0.022086	0.000000	0.000000	0.000000	0.000000	0.000000	;
	16	19	6703.328686	4.582719	0.068955	0.000000	0.000000	0.000000	0.000000	0.000000	;
	19	16	7034.073767	4.452518	0.069246	0.000000	0.000000	0.000000	0.000000	0.000000	;
	16	22	4469.882549	3.367288	0.048602	0.000000	0.000000	0.000000	0.000000	0.000000	;
	22	16	7627.741159	3.429105	0.048681	0.000000	0.000000	0.000000	0.000000	0.000000	;
	17	22	1886.210086	5.321009	0.173992	0.000000	0.000000	0.000000	0.000000	0.000000	;
	22	17	1884.190009	5.315025	0.167390	0.000000	0.000000	0.000000	0.000000	0.000000	;
	18	19	6192.450268	2.349796	0.035226	0.000000	0.000000	0.000000	0.000000	0.000000	;
	19	18	6293.127608	3.548771	0.055958	0.000000	0.000000	0.000000	0.000000	0.000000	;
	18	21	8000.000000	5.453573	0.079145	0.000000	0.000000	0.000000	0.000000	0.000000	;
	21	18	5449.818119	5.457316	0.079639	0.000000	0.000000	0.000000	0.000000	0.000000	;
	19	22	2023.075785	5.818844	0.181953	0.000000	0.000000	0.000000	0.000000	0.000000	;
	22	19	1606.326133	5.791542	0.177751	0.000000	0.000000	0.000000	0.000000	0.000000	;
	20	21	2644.724412	16.461817	0.298718	0.000000	0.000000	0.000000	0.000000	0.000000	;
	21	20	2416.390697	15.442909	0.280603	0.000000	0.000000	0.000000	0.000000	0.000000	;
	20	30	6000.000000	13.283225	0.185326	0.000000	0.000000	0.000000	0.000000	0.000000	;
	30	20	6000.000000	13.295710	0.187372	0.000000	0.000000	0.000000	0.000000	0.000000	;
	20	58	2479.370349	12.263938	0.187847	0.000000	0.000000	0.000000	0.000000	0.000000	;
	58	20	2630.412693	12.556028	0.190582	0.000000	0.000000	0.000000	0.000000	0.000000	;
	21	22	4493.711985	6.798869	0.105465	0.000000	0.000000	0.000000	0.000000	0.000000	;
	22	21	4495.928831	6.721773	0.104238	0.000000	0.000000	0.000000	0.000000	0.000000	;
	21	23	8000.000000	4.525775	0.066967	0.000000	0.000000	0.000000	0.000000	0.000000	;
	23	21	8000.000000	4.543421	0.066174	0.000000	0.000000	0.000000	0.000000	0.000000	;
	22	23	877.861868	4.583763	0.178312	0.000000	0.000000	0.000000	0.000000	0.000000	;
	23	22	960.167030	4.508858	0.178258	0.000000	0.000000	0.000000	0.000000	0.000000	;
	22	25	2853.104660	8.906273	0.209962	0.000000	0.000000	0.000000	0.000000	0.000000	;
	25	22	1506.692042	8.306624	0.190037	0.000000	0.000000	0.000000	0.000000	0.000000	;
	22	28	2080.186891	8.608119	0.259227	0.000000	0.000000	0.000000	0.000000	0.000000	;
	28	22	2102.073051	8.599900	0.257355	0.000000	0.000000	0.000000	0.000000	0.000000	;
	22	29	5879.862476	5.869561	0.096405	0.000000	0.000000	0.000000	0.000000	0.000000	;
	29	22	1423.685694	5.650089	0.093035	0.000000	0.000000	0.000000	0.000000	0.000000	;
	22	40	2210.802571	12.222220	0.456892	0.000000	0.000000	0.000000	0.000000	0.000000	;
	40	22	1664.447067	11.916418	0.446617	0.000000	0.000000	0.000000	0.000000	0.000000	;
	23	24	8000.000000	2.436260	0.036689	0.000000	0.000000	0.000000	0.000000	0.000000	;
	24	23	8000.000000	2.403902	0.035789	0.000000	0.000000	0.000000	0.000000	0.000000	;
	23	31	1139.317496	16.652993	0.458553	0.000000	0.000000	0.000000	0.000000	0.000000	;
	31	23	904.280899	16.799920	0.466823	0.000000	0.000000	0.000000	0.000000	0.000000	;
	24	25	4500.000000	1.687604	0.026787	0.000000	0.000000	0.000000	0.000000	0.000000	;
	25	24	3600.000000	1.678461	0.026642	0.000000	0.000000	0.000000	0.000000	0.000000	;
	24	26	7980.289310	1.645865	0.023691	0.000000	0.000000	0.000000	0.000000	0.000000	;
	26	24	8000.000000	1.061605	0.015691	0.000000	0.000000	0.000000	0.000000	0.000000	;
	24	33	3559.213894	11.986122	0.171367	0.000000	0.000000	0.000000	0.000000	0.000000	;
	33	24	5555.608069	11.945303	0.172950	0.000000	0.000000	0.000000	0.000000	0.000000	;
	25	26	1750.000000	1.928320	0.060308	0.000000	0.000000	0.000000	0.000000	0.000000	;
	26	25	2372.861722	1.812974	0.056615	0.000000	0.000000	0.000000	0.000000	0.000000	;
	26	27	1316.906179	1.569673	0.050181	0.000000	0.000000	0.000000	0.000000	0.000000	;
	27	26	985.369469	1.572847	0.050573	0.000000	0.000000	0.000000	0.000000	0.000000	;
	26	28	7462.918355	1.792193	0.027124	0.000000	0.000000	0.000000	0.000000	0.000000	;
	28	26	8332.485651	1.545397	0.023266	0.000000	0.000000	0.000000	0.000000	0.000000	;
	27	28	2020.835188	2.382525	0.049480	0.000000	0.000000	0.000000	0.000000	0.000000	;
	28	27	1906.378666	2.307315	0.048994	0.000000	0.000000	0.000000	0.000000	0.000000	;
	27	33	2656.304461	10.419637	0.227875	0.000000	0.000000	0.000000	0.000000	0.000000	;
	33	27	2787.223131	10.605612	0.238906	0.000000	0.000000	0.000000	0.000000	0.000000	;
	27	35	1139.332695	17.006678	0.461083	0.000000	0.000000	0.000000	0.000000	0.000000	;
	35	27	1388.367239	17.005568	0.464692	0.000000	0.000000	0.000000	0.000000	0.000000	;
	28	37	5538.939963	7.738237	0.116163	0.000000	0.000000	0.000000	0.000000	0.000000	;
	37	28	6173.037262	8.018881	0.122455	0.000000	0.000000	0.000000	0.000000	0.000000	;
	29	41	4266.616474	4.915497	0.078876	0.000000	0.000000	0.000000	0.000000	0.000000	;
	41	29	6304.110442	5.233682	0.084891	0.000000	0.000000	0.000000	0.000000	0.000000	;
	29	49	1060.253828	32.389346	0.862656	0.000000	0.000000	0.000000	0.000000	0.000000	;
	49	29	1117.781868	32.299122	0.877102	0.000000	0.000000	0.000000	0.000000	0.000000	;
	30	31	6000.000000	2.321757	0.032359	0.000000	0.000000	0.000000	0.000000	0.000000	;
	31	30	6000.000000	2.266330	0.032998	0.000000	0.000000	0.000000	0.000000	0.000000	;
	30	60	4882.896652	7.996646	0.114214	0.000000	0.000000	0.000000	0.000000	0.000000	;
	60	30	4803.175011	8.006117	0.117691	0.000000	0.000000	0.000000	0.000000	0.000000	;
	31	32	6000.000000	4.247237	0.060154	0.000000	0.000000	0.000000	0.000000	0.000000	;
	32	31	5459.290242	4.232368	0.060355	0.000000	0.000000	0.000000	0.000000	0.000000	;
	31	60	965.579981	6.729821	0.176349	0.000000	0.000000	0.000000	0.000000	0.000000	;
	60	31	1055.139505	6.734278	0.179319	0.000000	0.000000	0.000000	0.000000	0.000000	;
	32	33	2423.744805	4.981080	0.096065	0.000000	0.000000	0.000000	0.000000	0.000000	;
	33	32	2621.675199	4.952494	0.098353	0.000000	0.000000	0.000000	0.000000	0.000000	;
	32	34	2987.327149	1.806379	0.026445	0.000000	0.000000	0.000000	0.000000	0.000000	;
	34	32	4790.345753	1.888502	0.026979	0.000000	0.000000	0.000000	0.000000	0.000000	;
	32	60	2599.322451	5.513571	0.111140	0.000000	0.000000	0.000000	0.000000	0.000000	;
	60	32	2614.736215	5.443441	0.108607	0.000000	0.000000	0.000000	0.000000	0.000000	;
	33	34	5444.285031	4.951073	0.067686	0.000000	0.000000	0.000000	0.000000	0.000000	;
	34	33	5400.000000	4.890894	0.067929	0.000000	0.000000	0.000000	0.000000	0.000000	;
	34	35	5470.884476	9.338509	0.130360	0.000000	0.000000	0.000000	0.000000	0.000000	;
	35	34	6000.000000	9.213129	0.129099	0.000000	0.000000	0.000000	0.000000	0.000000	;
	34	60	5898.700106	10.077606	0.140899	0.000000	0.000000	0.000000	0.000000	0.000000	;
	60	34	5784.050030	14.807024	0.207543	0.000000	0.000000	0.000000	0.000000	0.000000	;
	35	36	5276.538355	6.580945	0.092530	0.000000	0.000000	0.000000	0.000000	0.000000	;
	36	35	6000.000000	6.854679	0.096513	0.000000	0.000000	0.000000	0.000000	0.000000	;
	35	71	1957.382228	3.665728	0.119188	0.000000	0.000000	0.000000	0.000000	0.000000	;
	71	35	1576.243145	3.666941	0.120317	0.000000	0.000000	0.000000	0.000000	0.000000	;
	36	43	875.000000	8.551889	0.236940	0.000000	0.000000	0.000000	0.000000	0.000000	;
	43	36	875.000000	8.474892	0.227668	0.000000	0.000000	0.000000	0.000000	0.000000	;
	36	44	6000.000000	8.148498	0.113432	0.000000	0.000000	0.000000	0.000000	0.000000	;
	44	36	5867.300085	7.709684	0.107280	0.000000	0.000000	0.000000	0.000000	0.000000	;
	36	71	1058.124261	7.348533	0.205470	0.000000	0.000000	0.000000	0.000000	0.000000	;
	71	36	1017.341605	7.337551	0.203815	0.000000	0.000000	0.000000	0.000000	0.000000	;
	37	38	5131.091446	3.188718	0.047781	0.000000	0.000000	0.000000	0.000000	0.000000	;
	38	37	5158.682169	3.529509	0.054144	0.000000	0.000000	0.000000	0.000000	0.000000	;
	37	42	1816.106654	7.634186	0.169636	0.000000	0.000000	0.000000	0.000000	0.000000	;
	42	37	1809.167052	7.710594	0.172289	0.000000	0.000000	0.000000	0.000000	0.000000	;
	38	39	4920.752228	3.167668	0.049260	0.000000	0.000000	0.000000	0.000000	0.000000	;
	39	38	5564.725681	3.103793	0.048731	0.000000	0.000000	0.000000	0.000000	0.000000	;
	38	42	6000.000000	6.153280	0.086214	0.000000	0.000000	0.000000	0.000000	0.000000	;
	42	38	5747.695049	6.951621	0.101052	0.000000	0.000000	0.000000	0.000000	0.000000	;
	39	40	7064.840605	1.292279	0.018762	0.000000	0.000000	0.000000	0.000000	0.000000	;
	40	39	7763.042886	1.307139	0.019853	0.000000	0.000000	0.000000	0.000000	0.000000	;
	39	48	4371.132753	17.539958	0.245609	0.000000	0.000000	0.000000	0.000000	0.000000	;
	48	39	5233.501727	18.147037	0.255123	0.000000	0.000000	0.000000	0.000000	0.000000	;
	40	41	6101.889600	3.486548	0.052977	0.000000	0.000000	0.000000	0.000000	0.000000	;
	41	40	6005.599197	3.224867	0.049483	0.000000	0.000000	0.000000	0.000000	0.000000	;
	40	48	1003.245496	21.899350	0.624606	0.000000	0.000000	0.000000	0.000000	0.000000	;
	48	40	1688.727995	21.947445	0.646177	0.000000	0.000000	0.000000	0.000000	0.000000	;
	41	49	2188.676850	32.819901	0.573397	0.000000	0.000000	0.000000	0.000000	0.000000	;
	49	41	2274.236353	32.924690	0.583100	0.000000	0.000000	0.000000	0.000000	0.000000	;
	42	43	1518.910867	3.965880	0.082974	0.000000	0.000000	0.000000	0.000000	0.000000	;
	43	42	1921.767308	3.971168	0.086944	0.000000	0.000000	0.000000	0.000000	0.000000	;
	42	45	6000.000000	6.062719	0.084105	0.000000	0.000000	0.000000	0.000000	0.000000	;
	45	42	6000.000000	6.256131	0.087310	0.000000	0.000000	0.000000	0.000000	0.000000	;
	43	44	1750.000000	3.491125	0.065806	0.000000	0.000000	0.000000	0.000000	0.000000	;
	44	43	1763.712840	3.564476	0.068433	0.000000	0.000000	0.000000	0.000000	0.000000	;
	43	45	1828.679811	4.080103	0.107891	0.000000	0.000000	0.000000	0.000000	0.000000	;
	45	43	1213.743460	4.141357	0.108835	0.000000	0.000000	0.000000	0.000000	0.000000	;
	44	46	6000.000000	3.243509	0.045602	0.000000	0.000000	0.000000	0.000000	0.000000	;
	46	44	6000.000000	3.245762	0.045613	0.000000	0.000000	0.000000	0.000000	0.000000	;
	44	54	1745.164116	10.076888	0.262186	0.000000	0.000000	0.000000	0.000000	0.000000	;
	54	44	1860.992488	10.014430	0.262637	0.000000	0.000000	0.000000	0.000000	0.000000	;
	45	46	6000.000000	1.889485	0.026912	0.000000	0.000000	0.000000	0.000000	0.000000	;
	46	45	4768.359065	1.960857	0.027521	0.000000	0.000000	0.000000	0.000000	0.000000	;
	45	47	2462.627044	3.422107	0.076107	0.000000	0.000000	0.000000	0.000000	0.000000	;
	47	45	2262.705882	3.687148	0.081303	0.000000	0.000000	0.000000	0.000000	0.000000	;
	46	47	6000.000000	2.860027	0.040511	0.000000	0.000000	0.000000	0.000000	0.000000	;
	47	46	4074.530263	2.870560	0.040089	0.000000	0.000000	0.000000	0.000000	0.000000	;
	46	54	5972.591129	11.279298	0.157395	0.000000	0.000000	0.000000	0.000000	0.000000	;
	54	46	5779.651242	11.207469	0.153831	0.000000	0.000000	0.000000	0.000000	0.000000	;
	47	48	1285.011529	10.530470	0.274471	0.000000	0.000000	0.000000	0.000000	0.000000	;
	48	47	825.000000	10.299169	0.269385	0.000000	0.000000	0.000000	0.000000	0.000000	;
	47	74	6000.000000	5.726137	0.078440	0.000000	0.000000	0.000000	0.000000	0.000000	;
	74	47	3317.446565	5.749452	0.079733	0.000000	0.000000	0.000000	0.000000	0.000000	;
	48	49	2121.019835	14.622122	0.246443	0.000000	0.000000	0.000000	0.000000	0.000000	;
	49	48	2063.929153	14.619950	0.244123	0.000000	0.000000	0.000000	0.000000	0.000000	;
	48	51	2121.346035	29.323021	0.575118	0.000000	0.000000	0.000000	0.000000	0.000000	;
	51	48	2173.005205	29.502822	0.570832	0.000000	0.000000	0.000000	0.000000	0.000000	;
	48	52	1884.440173	16.882700	0.238143	0.000000	0.000000	0.000000	0.000000	0.000000	;
	52	48	2415.093648	17.008577	0.240483	0.000000	0.000000	0.000000	0.000000	0.000000	;
	48	53	2164.620818	14.062639	0.201959	0.000000	0.000000	0.000000	0.000000	0.000000	;
	53	48	2000.000000	14.187330	0.204566	0.000000	0.000000	0.000000	0.000000	0.000000	;
	48	54	1893.169265	15.006140	0.355088	0.000000	0.000000	0.000000	0.000000	0.000000	;
	54	48	1755.928729	15.083883	0.361317	0.000000	0.000000	0.000000	0.000000	0.000000	;
	48	74	6000.000000	8.050591	0.111477	0.000000	0.000000	0.000000	0.000000	0.000000	;
	74	48	6000.000000	7.025985	0.097934	0.000000	0.000000	0.000000	0.000000	0.000000	;
	49	50	2664.129248	13.039072	0.187173	0.000000	0.000000	0.000000	0.000000	0.000000	;
	50	49	2928.314458	13.189106	0.188388	0.000000	0.000000	0.000000	0.000000	0.000000	;
	49	73	825.846988	8.533461	0.249452	0.000000	0.000000	0.000000	0.000000	0.000000	;
	73	49	825.000000	8.539432	0.253689	0.000000	0.000000	0.000000	0.000000	0.000000	;
	50	51	2000.000000	15.449374	0.288628	0.000000	0.000000	0.000000	0.000000	0.000000	;
	51	50	2000.000000	16.020354	0.294092	0.000000	0.000000	0.000000	0.000000	0.000000	;
	50	73	825.000000	8.473072	0.211827	0.000000	0.000000	0.000000	0.000000	0.000000	;
	73	50	825.000000	8.473072	0.211827	0.000000	0.000000	0.000000	0.000000	0.000000	;
	51	52	2000.000000	14.949057	0.213478	0.000000	0.000000	0.000000	0.000000	0.000000	;
	52	51	2000.000000	14.931071	0.212050	0.000000	0.000000	0.000000	0.000000	0.000000	;
	52	53	2000.000000	8.710908	0.124295	0.000000	0.000000	0.000000	0.000000	0.000000	;
	53	52	2000.000000	8.791252	0.124731	0.000000	0.000000	0.000000	0.000000	0.000000	;
	53	54	2000.000000	13.929966	0.200888	0.000000	0.000000	0.000000	0.000000	0.000000	;
	54	53	2000.000000	13.938593	0.204645	0.000000	0.000000	0.000000	0.000000	0.000000	;
	55	57	2000.000000	9.342478	0.187275	0.000000	0.000000	0.000000	0.000000	0.000000	;
	57	55	2000.000000	9.139465	0.183314	0.000000	0.000000	0.000000	0.000000	0.000000	;
	56	57	2000.000000	10.255872	0.158886	0.000000	0.000000	0.000000	0.000000	0.000000	;
	57	56	2000.000000	10.442469	0.162691	0.000000	0.000000	0.000000	0.000000	0.000000	;
	57	58	2000.000000	10.358965	0.162372	0.000000	0.000000	0.000000	0.000000	0.000000	;
	58	57	2000.000000	10.189568	0.157897	0.000000	0.000000	0.000000	0.000000	0.000000	;
	57	59	2000.000000	11.360160	0.266545	0.000000	0.000000	0.000000	0.000000	0.000000	;
	59	57	2000.000000	11.354891	0.263774	0.000000	0.000000	0.000000	0.000000	0.000000	;
	58	59	2000.000000	9.144294	0.130570	0.000000	0.000000	0.000000	0.000000	0.000000	;
	59	58	2000.000000	9.303475	0.135526	0.000000	0.000000	0.000000	0.000000	0.000000	;
	59	60	2000.000000	8.141116	0.118980	0.000000	0.000000	0.000000	0.000000	0.000000	;
	60	59	2000.000000	8.495865	0.124498	0.000000	0.000000	0.000000	0.000000	0.000000	;
	59	72	2000.000000	3.113282	0.080857	0.000000	0.000000	0.000000	0.000000	0.000000	;
	72	59	2000.000000	3.106375	0.081947	0.000000	0.000000	0.000000	0.000000	0.000000	;
	60	61	2000.000000	24.836979	0.649394	0.000000	0.000000	0.000000	0.000000	0.000000	;
	61	60	2000.000000	24.834966	0.649959	0.000000	0.000000	0.000000	0.000000	0.000000	;
	60	63	2000.000000	9.667444	0.135342	0.000000	0.000000	0.000000	0.000000	0.000000	;
	63	60	2000.000000	9.769817	0.138670	0.000000	0.000000	0.000000	0.000000	0.000000	;
	60	65	2000.000000	11.630476	0.244542	0.000000	0.000000	0.000000	0.000000	0.000000	;
	65	60	2000.000000	11.588988	0.240716	0.000000	0.000000	0.000000	0.000000	0.000000	;
	60	67	2000.000000	8.630658	0.126147	0.000000	0.000000	0.000000	0.000000	0.000000	;
	67	60	2000.000000	8.971461	0.130509	0.000000	0.000000	0.000000	0.000000	0.000000	;
	60	69	2075.828365	12.157808	0.192359	0.000000	0.000000	0.000000	0.000000	0.000000	;
	69	60	2333.427091	11.789682	0.183140	0.000000	0.000000	0.000000	0.000000	0.000000	;
	60	71	1400.478511	12.851941	0.339724	0.000000	0.000000	0.000000	0.000000	0.000000	;
	71	60	1400.154626	12.851941	0.337390	0.000000	0.000000	0.000000	0.000000	0.000000	;
	60	72	2000.000000	4.619147	0.112396	0.000000	0.000000	0.000000	0.000000	0.000000	;
	72	60	2000.000000	4.619147	0.109156	0.000000	0.000000	0.000000	0.000000	0.000000	;
	62	63	2000.000000	3.711357	0.052273	0.000000	0.000000	0.000000	0.000000	0.000000	;
	63	62	2000.000000	4.075201	0.058217	0.000000	0.000000	0.000000	0.000000	0.000000	;
	63	65	2000.000000	1.377317	0.026395	0.000000	0.000000	0.000000	0.000000	0.000000	;
	65	63	2000.000000	1.512241	0.028621	0.000000	0.000000	0.000000	0.000000	0.000000	;
	64	65	2000.000000	3.254047	0.082705	0.000000	0.000000	0.000000	0.000000	0.000000	;
	65	64	2000.000000	3.077846	0.084120	0.000000	0.000000	0.000000	0.000000	0.000000	;
	65	66	2000.000000	6.352585	0.088355	0.000000	0.000000	0.000000	0.000000	0.000000	;
	66	65	2000.000000	6.913756	0.096311	0.000000	0.000000	0.000000	0.000000	0.000000	;
	67	68	2000.000000	2.647231	0.039206	0.000000	0.000000	0.000000	0.000000	0.000000	;
	68	67	2000.000000	2.867757	0.041562	0.000000	0.000000	0.000000	0.000000	0.000000	;
	67	69	2000.000000	11.765242	0.279353	0.000000	0.000000	0.000000	0.000000	0.000000	;
	69	67	2000.000000	11.765242	0.281204	0.000000	0.000000	0.000000	0.000000	0.000000	;
	69	70	3179.348082	5.334022	0.077249	0.000000	0.000000	0.000000	0.000000	0.000000	;
	70	69	2919.745558	5.893052	0.082871	0.000000	0.000000	0.000000	0.000000	0.000000	;
	69	71	875.000000	8.992124	0.231590	0.000000	0.000000	0.000000	0.000000	0.000000	;
	71	69	1145.206340	8.985699	0.236104	0.000000	0.000000	0.000000	0.000000	0.000000	;
