<NUMBER OF ZONES> 74
<NUMBER OF ZONES> 74
<FIRST THRU NODE> 1
<NUMBER OF LINKS> 258
<NUMBER OF ZONES> 74
<END OF METADATA>


~  Init node  Term node  Capacity  Length  Free Flow Time  B  Power  Speed limit  Toll  Type  ;
  1  3  4938.061313  0.000000  0.238965  0.000000  0.000000  0.000000  0.000000  0.000000  ;
  3  1  5254.128510  0.000000  0.240297  0.000000  0.000000  0.000000  0.000000  0.000000  ;
  1  7  7309.824721  0.000000  0.222813  0.000000  0.000000  0.000000  0.000000  0.000000  ;
  7  1  7388.626964  0.000000  0.218902  0.000000  0.000000  0.000000  0.000000  0.000000  ;
  1  9  1164.374840  0.000000  0.402046  0.000000  0.000000  0.000000  0.000000  0.000000  ;
  9  1  1076.221509  0.000000  0.403219  0.000000  0.000000  0.000000  0.000000  0.000000  ;
  2  3  885.069883  0.000000  0.106992  0.000000  0.000000  0.000000  0.000000  0.000000  ;
  3  2  879.337660  0.000000  0.108032  0.000000  0.000000  0.000000  0.000000  0.000000  ;
  3  6  5963.515309  0.000000  0.109499  0.000000  0.000000  0.000000  0.000000  0.000000  ;
  6  3  6000.000000  0.000000  0.107665  0.000000  0.000000  0.000000  0.000000  0.000000  ;
  3  7  870.143949  0.000000  0.349058  0.000000  0.000000  0.000000  0.000000  0.000000  ;
  7  3  987.279904  0.000000  0.346955  0.000000  0.000000  0.000000  0.000000  0.000000  ;
  4  6  1397.463467  0.000000  0.153312  0.000000  0.000000  0.000000  0.000000  0.000000  ;
  6  4  1032.232650  0.000000  0.151643  0.000000  0.000000  0.000000  0.000000  0.000000  ;
  4  8  5955.227565  0.000000  0.089394  0.000000  0.000000  0.000000  0.000000  0.000000  ;
  8  4  6223.710971  0.000000  0.090973  0.000000  0.000000  0.000000  0.000000  0.000000  ;
  5  10  3970.233407  0.000000  0.151020  0.000000  0.000000  0.000000  0.000000  0.000000  ;
  10  5  3954.624913  0.000000  0.148699  0.000000  0.000000  0.000000  0.000000  0.000000  ;
  5  11  934.463935  0.000000  0.382470  0.000000  0.000000  0.000000  0.000000  0.000000  ;
  11  5  882.819848  0.000000  0.374745  0.000000  0.000000  0.000000  0.000000  0.000000  ;
  6  8  6000.000000  0.000000  0.043012  0.000000  0.000000  0.000000  0.000000  0.000000  ;
  8  6  6000.000000  0.000000  0.038664  0.000000  0.000000  0.000000  0.000000  0.000000  ;
  6  13  2232.228547  0.000000  0.283196  0.000000  0.000000  0.000000  0.000000  0.000000  ;
  13  6  1834.137753  0.000000  0.279406  0.000000  0.000000  0.000000  0.000000  0.000000  ;
  6  17  1370.884143  0.000000  0.364887  0.000000  0.000000  0.000000  0.000000  0.000000  ;
  17  6  1245.949960  0.000000  0.361371  0.000000  0.000000  0.000000  0.000000  0.000000  ;
  7  9  827.932876  0.000000  0.105565  0.000000  0.000000  0.000000  0.000000  0.000000  ;
  9  7  825.000000  0.000000  0.104603  0.000000  0.000000  0.000000  0.000000  0.000000  ;
  7  13  5919.941039  0.000000  0.088559  0.000000  0.000000  0.000000  0.000000  0.000000  ;
  13  7  8000.000000  0.000000  0.092749  0.000000  0.000000  0.000000  0.000000  0.000000  ;
  8  11  6000.000000  0.000000  0.085073  0.000000  0.000000  0.000000  0.000000  0.000000  ;
  11  8  6000.000000  0.000000  0.085183  0.000000  0.000000  0.000000  0.000000  0.000000  ;
  8  16  6064.219547  0.000000  0.177718  0.000000  0.000000  0.000000  0.000000  0.000000  ;
  16  8  4445.015010  0.000000  0.176796  0.000000  0.000000  0.000000  0.000000  0.000000  ;
  9  12  973.892640  0.000000  0.143440  0.000000  0.000000  0.000000  0.000000  0.000000  ;
  12  9  970.976785  0.000000  0.142648  0.000000  0.000000  0.000000  0.000000  0.000000  ;
  9  13  875.000000  0.000000  0.064058  0.000000  0.000000  0.000000  0.000000  0.000000  ;
  13  9  875.000000  0.000000  0.065090  0.000000  0.000000  0.000000  0.000000  0.000000  ;
  10  11  8000.000000  0.000000  0.026278  0.000000  0.000000  0.000000  0.000000  0.000000  ;
  11  10  8000.000000  0.000000  0.026149  0.000000  0.000000  0.000000  0.000000  0.000000  ;
  10  18  3900.000000  0.000000  0.151084  0.000000  0.000000  0.000000  0.000000  0.000000  ;
  18  10  2913.625342  0.000000  0.149754  0.000000  0.000000  0.000000  0.000000  0.000000  ;
  10  20  5719.303943  0.000000  0.166898  0.000000  0.000000  0.000000  0.000000  0.000000  ;
  20  10  6009.002354  0.000000  0.169507  0.000000  0.000000  0.000000  0.000000  0.000000  ;
  11  19  1124.407633  0.000000  0.375603  0.000000  0.000000  0.000000  0.000000  0.000000  ;
  19  11  1617.706447  0.000000  0.372797  0.000000  0.000000  0.000000  0.000000  0.000000  ;
  13  14  4394.231889  0.000000  0.135662  0.000000  0.000000  0.000000  0.000000  0.000000  ;
  14  13  4320.225018  0.000000  0.125066  0.000000  0.000000  0.000000  0.000000  0.000000  ;
  13  15  1910.935331  0.000000  0.285875  0.000000  0.000000  0.000000  0.000000  0.000000  ;
  15  13  2863.541072  0.000000  0.296532  0.000000  0.000000  0.000000  0.000000  0.000000  ;
  14  17  5946.288757  0.000000  0.101234  0.000000  0.000000  0.000000  0.000000  0.000000  ;
  17  14  4904.241929  0.000000  0.105394  0.000000  0.000000  0.000000  0.000000  0.000000  ;
  14  22  2840.485893  0.000000  0.152652  0.000000  0.000000  0.000000  0.000000  0.000000  ;
  22  14  2895.846620  0.000000  0.146429  0.000000  0.000000  0.000000  0.000000  0.000000  ;
  16  17  6321.013829  0.000000  0.021253  0.000000  0.000000  0.000000  0.000000  0.000000  ;
  17  16  4209.453790  0.000000  0.022086  0.000000  0.000000  0.000000  0.000000  0.000000  ;
  16  19  6703.328686  0.000000  0.068955  0.000000  0.000000  0.000000  0.000000  0.000000  ;
  19  16  7034.073767  0.000000  0.069246  0.000000  0.000000  0.000000  0.000000  0.000000  ;
  16  22  4469.882549  0.000000  0.048602  0.000000  0.000000  0.000000  0.000000  0.000000  ;
  22  16  7627.741159  0.000000  0.048681  0.000000  0.000000  0.000000  0.000000  0.000000  ;
  17  22  1886.210086  0.000000  0.173992  0.000000  0.000000  0.000000  0.000000  0.000000  ;
  22  17  1884.190009  0.000000  0.167390  0.000000  0.000000  0.000000  0.000000  0.000000  ;
  18  19  6192.450268  0.000000  0.035226  0.000000  0.000000  0.000000  0.000000  0.000000  ;
  19  18  6293.127608  0.000000  0.055958  0.000000  0.000000  0.000000  0.000000  0.000000  ;
  18  21  8000.000000  0.000000  0.079145  0.000000  0.000000  0.000000  0.000000  0.000000  ;
  21  18  5449.818119  0.000000  0.079639  0.000000  0.000000  0.000000  0.000000  0.000000  ;
  19  22  2023.075785  0.000000  0.181953  0.000000  0.000000  0.000000  0.000000  0.000000  ;
  22  19  1606.326133  0.000000  0.177751  0.000000  0.000000  0.000000  0.000000  0.000000  ;
  20  21  2644.724412  0.000000  0.298718  0.000000  0.000000  0.000000  0.000000  0.000000  ;
  21  20  2416.390697  0.000000  0.280603  0.000000  0.000000  0.000000  0.000000  0.000000  ;
  20  30  6000.000000  0.000000  0.185326  0.000000  0.000000  0.000000  0.000000  0.000000  ;
  30  20  6000.000000  0.000000  0.187372  0.000000  0.000000  0.000000  0.000000  0.000000  ;
  20  58  2479.370349  0.000000  0.187847  0.000000  0.000000  0.000000  0.000000  0.000000  ;
  58  20  2630.412693  0.000000  0.190582  0.000000  0.000000  0.000000  0.000000  0.000000  ;
  21  22  4493.711985  0.000000  0.105465  0.000000  0.000000  0.000000  0.000000  0.000000  ;
  22  21  4495.928831  0.000000  0.104238  0.000000  0.000000  0.000000  0.000000  0.000000  ;
  21  23  8000.000000  0.000000  0.066967  0.000000  0.000000  0.000000  0.000000  0.000000  ;
  23  21  8000.000000  0.000000  0.066174  0.000000  0.000000  0.000000  0.000000  0.000000  ;
  22  23  877.861868  0.000000  0.178312  0.000000  0.000000  0.000000  0.000000  0.000000  ;
  23  22  960.167030  0.000000  0.178258  0.000000  0.000000  0.000000  0.000000  0.000000  ;
  22  25  2853.104660  0.000000  0.209962  0.000000  0.000000  0.000000  0.000000  0.000000  ;
  25  22  1506.692042  0.000000  0.190037  0.000000  0.000000  0.000000  0.000000  0.000000  ;
  22  28  2080.186891  0.000000  0.259227  0.000000  0.000000  0.000000  0.000000  0.000000  ;
  28  22  2102.073051  0.000000  0.257355  0.000000  0.000000  0.000000  0.000000  0.000000  ;
  22  29  5879.862476  0.000000  0.096405  0.000000  0.000000  0.000000  0.000000  0.000000  ;
  29  22  1423.685694  0.000000  0.093035  0.000000  0.000000  0.000000  0.000000  0.000000  ;
  22  40  2210.802571  0.000000  0.456892  0.000000  0.000000  0.000000  0.000000  0.000000  ;
  40  22  1664.447067  0.000000  0.446617  0.000000  0.000000  0.000000  0.000000  0.000000  ;
  23  24  8000.000000  0.000000  0.036689  0.000000  0.000000  0.000000  0.000000  0.000000  ;
  24  23  8000.000000  0.000000  0.035789  0.000000  0.000000  0.000000  0.000000  0.000000  ;
  23  31  1139.317496  0.000000  0.458553  0.000000  0.000000  0.000000  0.000000  0.000000  ;
  31  23  904.280899  0.000000  0.466823  0.000000  0.000000  0.000000  0.000000  0.000000  ;
  24  25  4500.000000  0.000000  0.026787  0.000000  0.000000  0.000000  0.000000  0.000000  ;
  25  24  3600.000000  0.000000  0.026642  0.000000  0.000000  0.000000  0.000000  0.000000  ;
  24  26  7980.289310  0.000000  0.023691  0.000000  0.000000  0.000000  0.000000  0.000000  ;
  26  24  8000.000000  0.000000  0.015691  0.000000  0.000000  0.000000  0.000000  0.000000  ;
  24  33  3559.213894  0.000000  0.171367  0.000000  0.000000  0.000000  0.000000  0.000000  ;
  33  24  5555.608069  0.000000  0.172950  0.000000  0.000000  0.000000  0.000000  0.000000  ;
  25  26  1750.000000  0.000000  0.060308  0.000000  0.000000  0.000000  0.000000  0.000000  ;
  26  25  2372.861722  0.000000  0.056615  0.000000  0.000000  0.000000  0.000000  0.000000  ;
  26  27  1316.906179  0.000000  0.050181  0.000000  0.000000  0.000000  0.000000  0.000000  ;
  27  26  985.369469  0.000000  0.050573  0.000000  0.000000  0.000000  0.000000  0.000000  ;
  26  28  7462.918355  0.000000  0.027124  0.000000  0.000000  0.000000  0.000000  0.000000  ;
  28  26  8332.485651  0.000000  0.023266  0.000000  0.000000  0.000000  0.000000  0.000000  ;
  27  28  2020.835188  0.000000  0.049480  0.000000  0.000000  0.000000  0.000000  0.000000  ;
  28  27  1906.378666  0.000000  0.048994  0.000000  0.000000  0.000000  0.000000  0.000000  ;
  27  33  2656.304461  0.000000  0.227875  0.000000  0.000000  0.000000  0.000000  0.000000  ;
  33  27  2787.223131  0.000000  0.238906  0.000000  0.000000  0.000000  0.000000  0.000000  ;
  27  35  1139.332695  0.000000  0.461083  0.000000  0.000000  0.000000  0.000000  0.000000  ;
  35  27  1388.367239  0.000000  0.464692  0.000000  0.000000  0.000000  0.000000  0.000000  ;
  28  37  5538.939963  0.000000  0.116163  0.000000  0.000000  0.000000  0.000000  0.000000  ;
  37  28  6173.037262  0.000000  0.122455  0.000000  0.000000  0.000000  0.000000  0.000000  ;
  29  41  4266.616474  0.000000  0.078876  0.000000  0.000000  0.000000  0.000000  0.000000  ;
  41  29  6304.110442  0.000000  0.084891  0.000000  0.000000  0.000000  0.000000  0.000000  ;
  29  49  1060.253828  0.000000  0.862656  0.000000  0.000000  0.000000  0.000000  0.000000  ;
  49  29  1117.781868  0.000000  0.877102  0.000000  0.000000  0.000000  0.000000  0.000000  ;
  30  31  6000.000000  0.000000  0.032359  0.000000  0.000000  0.000000  0.000000  0.000000  ;
  31  30  6000.000000  0.000000  0.032998  0.000000  0.000000  0.000000  0.000000  0.000000  ;
  30  60  4882.896652  0.000000  0.114214  0.000000  0.000000  0.000000  0.000000  0.000000  ;
  60  30  4803.175011  0.000000  0.117691  0.000000  0.000000  0.000000  0.000000  0.000000  ;
  31  32  6000.000000  0.000000  0.060154  0.000000  0.000000  0.000000  0.000000  0.000000  ;
  32  31  5459.290242  0.000000  0.060355  0.000000  0.000000  0.000000  0.000000  0.000000  ;
  31  60  965.579981  0.000000  0.176349  0.000000  0.000000  0.000000  0.000000  0.000000  ;
  60  31  1055.139505  0.000000  0.179319  0.000000  0.000000  0.000000  0.000000  0.000000  ;
  32  33  2423.744805  0.000000  0.096065  0.000000  0.000000  0.000000  0.000000  0.000000  ;
  33  32  2621.675199  0.000000  0.098353  0.000000  0.000000  0.000000  0.000000  0.000000  ;
  32  34  2987.327149  0.000000  0.026445  0.000000  0.000000  0.000000  0.000000  0.000000  ;
  34  32  4790.345753  0.000000  0.026979  0.000000  0.000000  0.000000  0.000000  0.000000  ;
  32  60  2599.322451  0.000000  0.111140  0.000000  0.000000  0.000000  0.000000  0.000000  ;
  60  32  2614.736215  0.000000  0.108607  0.000000  0.000000  0.000000  0.000000  0.000000  ;
  33  34  5444.285031  0.000000  0.067686  0.000000  0.000000  0.000000  0.000000  0.000000  ;
  34  33  5400.000000  0.000000  0.067929  0.000000  0.000000  0.000000  0.000000  0.000000  ;
  34  35  5470.884476  0.000000  0.130360  0.000000  0.000000  0.000000  0.000000  0.000000  ;
  35  34  6000.000000  0.000000  0.129099  0.000000  0.000000  0.000000  0.000000  0.000000  ;
  34  60  5898.700106  0.000000  0.140899  0.000000  0.000000  0.000000  0.000000  0.000000  ;
  60  34  5784.050030  0.000000  0.207543  0.000000  0.000000  0.000000  0.000000  0.000000  ;
  35  36  5276.538355  0.000000  0.092530  0.000000  0.000000  0.000000  0.000000  0.000000  ;
  36  35  6000.000000  0.000000  0.096513  0.000000  0.000000  0.000000  0.000000  0.000000  ;
  35  71  1957.382228  0.000000  0.119188  0.000000  0.000000  0.000000  0.000000  0.000000  ;
  71  35  1576.243145  0.000000  0.120317  0.000000  0.000000  0.000000  0.000000  0.000000  ;
  36  43  875.000000  0.000000  0.236940  0.000000  0.000000  0.000000  0.000000  0.000000  ;
  43  36  875.000000  0.000000  0.227668  0.000000  0.000000  0.000000  0.000000  0.000000  ;
  36  44  6000.000000  0.000000  0.113432  0.000000  0.000000  0.000000  0.000000  0.000000  ;
  44  36  5867.300085  0.000000  0.107280  0.000000  0.000000  0.000000  0.000000  0.000000  ;
  36  71  1058.124261  0.000000  0.205470  0.000000  0.000000  0.000000  0.000000  0.000000  ;
  71  36  1017.341605  0.000000  0.203815  0.000000  0.000000  0.000000  0.000000  0.000000  ;
  37  38  5131.091446  0.000000  0.047781  0.000000  0.000000  0.000000  0.000000  0.000000  ;
  38  37  5158.682169  0.000000  0.054144  0.000000  0.000000  0.000000  0.000000  0.000000  ;
  37  42  1816.106654  0.000000  0.169636  0.000000  0.000000  0.000000  0.000000  0.000000  ;
  42  37  1809.167052  0.000000  0.172289  0.000000  0.000000  0.000000  0.000000  0.000000  ;
  38  39  4920.752228  0.000000  0.049260  0.000000  0.000000  0.000000  0.000000  0.000000  ;
  39  38  5564.725681  0.000000  0.048731  0.000000  0.000000  0.000000  0.000000  0.000000  ;
  38  42  6000.000000  0.000000  0.086214  0.000000  0.000000  0.000000  0.000000  0.000000  ;
  42  38  5747.695049  0.000000  0.101052  0.000000  0.000000  0.000000  0.000000  0.000000  ;
  39  40  7064.840605  0.000000  0.018762  0.000000  0.000000  0.000000  0.000000  0.000000  ;
  40  39  7763.042886  0.000000  0.019853  0.000000  0.000000  0.000000  0.000000  0.000000  ;
  39  48  4371.132753  0.000000  0.245609  0.000000  0.000000  0.000000  0.000000  0.000000  ;
  48  39  5233.501727  0.000000  0.255123  0.000000  0.000000  0.000000  0.000000  0.000000  ;
  40  41  6101.889600  0.000000  0.052977  0.000000  0.000000  0.000000  0.000000  0.000000  ;
  41  40  6005.599197  0.000000  0.049483  0.000000  0.000000  0.000000  0.000000  0.000000  ;
  40  48  1003.245496  0.000000  0.624606  0.000000  0.000000  0.000000  0.000000  0.000000  ;
  48  40  1688.727995  0.000000  0.646177  0.000000  0.000000  0.000000  0.000000  0.000000  ;
  41  49  2188.676850  0.000000  0.573397  0.000000  0.000000  0.000000  0.000000  0.000000  ;
  49  41  2274.236353  0.000000  0.583100  0.000000  0.000000  0.000000  0.000000  0.000000  ;
  42  43  1518.910867  0.000000  0.082974  0.000000  0.000000  0.000000  0.000000  0.000000  ;
  43  42  1921.767308  0.000000  0.086944  0.000000  0.000000  0.000000  0.000000  0.000000  ;
  42  45  6000.000000  0.000000  0.084105  0.000000  0.000000  0.000000  0.000000  0.000000  ;
  45  42  6000.000000  0.000000  0.087310  0.000000  0.000000  0.000000  0.000000  0.000000  ;
  43  44  1750.000000  0.000000  0.065806  0.000000  0.000000  0.000000  0.000000  0.000000  ;
  44  43  1763.712840  0.000000  0.068433  0.000000  0.000000  0.000000  0.000000  0.000000  ;
  43  45  1828.679811  0.000000  0.107891  0.000000  0.000000  0.000000  0.000000  0.000000  ;
  45  43  1213.743460  0.000000  0.108835  0.000000  0.000000  0.000000  0.000000  0.000000  ;
  44  46  6000.000000  0.000000  0.045602  0.000000  0.000000  0.000000  0.000000  0.000000  ;
  46  44  6000.000000  0.000000  0.045613  0.000000  0.000000  0.000000  0.000000  0.000000  ;
  44  54  1745.164116  0.000000  0.262186  0.000000  0.000000  0.000000  0.000000  0.000000  ;
  54  44  1860.992488  0.000000  0.262637  0.000000  0.000000  0.000000  0.000000  0.000000  ;
  45  46  6000.000000  0.000000  0.026912  0.000000  0.000000  0.000000  0.000000  0.000000  ;
  46  45  4768.359065  0.000000  0.027521  0.000000  0.000000  0.000000  0.000000  0.000000  ;
  45  47  2462.627044  0.000000  0.076107  0.000000  0.000000  0.000000  0.000000  0.000000  ;
  47  45  2262.705882  0.000000  0.081303  0.000000  0.000000  0.000000  0.000000  0.000000  ;
  46  47  6000.000000  0.000000  0.040511  0.000000  0.000000  0.000000  0.000000  0.000000  ;
  47  46  4074.530263  0.000000  0.040089  0.000000  0.000000  0.000000  0.000000  0.000000  ;
  46  54  5972.591129  0.000000  0.157395  0.000000  0.000000  0.000000  0.000000  0.000000  ;
  54  46  5779.651242  0.000000  0.153831  0.000000  0.000000  0.000000  0.000000  0.000000  ;
  47  48  1285.011529  0.000000  0.274471  0.000000  0.000000  0.000000  0.000000  0.000000  ;
  48  47  825.000000  0.000000  0.269385  0.000000  0.000000  0.000000  0.000000  0.000000  ;
  47  74  6000.000000  0.000000  0.078440  0.000000  0.000000  0.000000  0.000000  0.000000  ;
  74  47  3317.446565  0.000000  0.079733  0.000000  0.000000  0.000000  0.000000  0.000000  ;
  48  49  2121.019835  0.000000  0.246443  0.000000  0.000000  0.000000  0.000000  0.000000  ;
  49  48  2063.929153  0.000000  0.244123  0.000000  0.000000  0.000000  0.000000  0.000000  ;
  48  51  2121.346035  0.000000  0.575118  0.000000  0.000000  0.000000  0.000000  0.000000  ;
  51  48  2173.005205  0.000000  0.570832  0.000000  0.000000  0.000000  0.000000  0.000000  ;
  48  52  1884.440173  0.000000  0.238143  0.000000  0.000000  0.000000  0.000000  0.000000  ;
  52  48  2415.093648  0.000000  0.240483  0.000000  0.000000  0.000000  0.000000  0.000000  ;
  48  53  2164.620818  0.000000  0.201959  0.000000  0.000000  0.000000  0.000000  0.000000  ;
  53  48  2000.000000  0.000000  0.204566  0.000000  0.000000  0.000000  0.000000  0.000000  ;
  48  54  1893.169265  0.000000  0.355088  0.000000  0.000000  0.000000  0.000000  0.000000  ;
  54  48  1755.928729  0.000000  0.361317  0.000000  0.000000  0.000000  0.000000  0.000000  ;
  48  74  6000.000000  0.000000  0.111477  0.000000  0.000000  0.000000  0.000000  0.000000  ;
  74  48  6000.000000  0.000000  0.097934  0.000000  0.000000  0.000000  0.000000  0.000000  ;
  49  50  2664.129248  0.000000  0.187173  0.000000  0.000000  0.000000  0.000000  0.000000  ;
  50  49  2928.314458  0.000000  0.188388  0.000000  0.000000  0.000000  0.000000  0.000000  ;
  49  73  825.846988  0.000000  0.249452  0.000000  0.000000  0.000000  0.000000  0.000000  ;
  73  49  825.000000  0.000000  0.253689  0.000000  0.000000  0.000000  0.000000  0.000000  ;
  50  51  2000.000000  0.000000  0.288628  0.000000  0.000000  0.000000  0.000000  0.000000  ;
  51  50  2000.000000  0.000000  0.294092  0.000000  0.000000  0.000000  0.000000  0.000000  ;
  50  73  825.000000  0.000000  0.211827  0.000000  0.000000  0.000000  0.000000  0.000000  ;
  73  50  825.000000  0.000000  0.211827  0.000000  0.000000  0.000000  0.000000  0.000000  ;
  51  52  2000.000000  0.000000  0.213478  0.000000  0.000000  0.000000  0.000000  0.000000  ;
  52  51  2000.000000  0.000000  0.212050  0.000000  0.000000  0.000000  0.000000  0.000000  ;
  52  53  2000.000000  0.000000  0.124295  0.000000  0.000000  0.000000  0.000000  0.000000  ;
  53  52  2000.000000  0.000000  0.124731  0.000000  0.000000  0.000000  0.000000  0.000000  ;
  53  54  2000.000000  0.000000  0.200888  0.000000  0.000000  0.000000  0.000000  0.000000  ;
  54  53  2000.000000  0.000000  0.204645  0.000000  0.000000  0.000000  0.000000  0.000000  ;
  55  57  2000.000000  0.000000  0.187275  0.000000  0.000000  0.000000  0.000000  0.000000  ;
  57  55  2000.000000  0.000000  0.183314  0.000000  0.000000  0.000000  0.000000  0.000000  ;
  56  57  2000.000000  0.000000  0.158886  0.000000  0.000000  0.000000  0.000000  0.000000  ;
  57  56  2000.000000  0.000000  0.162691  0.000000  0.000000  0.000000  0.000000  0.000000  ;
  57  58  2000.000000  0.000000  0.162372  0.000000  0.000000  0.000000  0.000000  0.000000  ;
  58  57  2000.000000  0.000000  0.157897  0.000000  0.000000  0.000000  0.000000  0.000000  ;
  57  59  2000.000000  0.000000  0.266545  0.000000  0.000000  0.000000  0.000000  0.000000  ;
  59  57  2000.000000  0.000000  0.263774  0.000000  0.000000  0.000000  0.000000  0.000000  ;
  58  59  2000.000000  0.000000  0.130570  0.000000  0.000000  0.000000  0.000000  0.000000  ;
  59  58  2000.000000  0.000000  0.135526  0.000000  0.000000  0.000000  0.000000  0.000000  ;
  59  60  2000.000000  0.000000  0.118980  0.000000  0.000000  0.000000  0.000000  0.000000  ;
  60  59  2000.000000  0.000000  0.124498  0.000000  0.000000  0.000000  0.000000  0.000000  ;
  59  72  2000.000000  0.000000  0.080857  0.000000  0.000000  0.000000  0.000000  0.000000  ;
  72  59  2000.000000  0.000000  0.081947  0.000000  0.000000  0.000000  0.000000  0.000000  ;
  60  61  2000.000000  0.000000  0.649394  0.000000  0.000000  0.000000  0.000000  0.000000  ;
  61  60  2000.000000  0.000000  0.649959  0.000000  0.000000  0.000000  0.000000  0.000000  ;
  60  63  2000.000000  0.000000  0.135342  0.000000  0.000000  0.000000  0.000000  0.000000  ;
  63  60  2000.000000  0.000000  0.138670  0.000000  0.000000  0.000000  0.000000  0.000000  ;
  60  65  2000.000000  0.000000  0.244542  0.000000  0.000000  0.000000  0.000000  0.000000  ;
  65  60  2000.000000  0.000000  0.240716  0.000000  0.000000  0.000000  0.000000  0.000000  ;
  60  67  2000.000000  0.000000  0.126147  0.000000  0.000000  0.000000  0.000000  0.000000  ;
  67  60  2000.000000  0.000000  0.130509  0.000000  0.000000  0.000000  0.000000  0.000000  ;
  60  69  2075.828365  0.000000  0.192359  0.000000  0.000000  0.000000  0.000000  0.000000  ;
  69  60  2333.427091  0.000000  0.183140  0.000000  0.000000  0.000000  0.000000  0.000000  ;
  60  71  1400.478511  0.000000  0.339724  0.000000  0.000000  0.000000  0.000000  0.000000  ;
  71  60  1400.154626  0.000000  0.337390  0.000000  0.000000  0.000000  0.000000  0.000000  ;
  60  72  2000.000000  0.000000  0.112396  0.000000  0.000000  0.000000  0.000000  0.000000  ;
  72  60  2000.000000  0.000000  0.109156  0.000000  0.000000  0.000000  0.000000  0.000000  ;
  62  63  2000.000000  0.000000  0.052273  0.000000  0.000000  0.000000  0.000000  0.000000  ;
  63  62  2000.000000  0.000000  0.058217  0.000000  0.000000  0.000000  0.000000  0.000000  ;
  63  65  2000.000000  0.000000  0.026395  0.000000  0.000000  0.000000  0.000000  0.000000  ;
  65  63  2000.000000  0.000000  0.028621  0.000000  0.000000  0.000000  0.000000  0.000000  ;
  64  65  2000.000000  0.000000  0.082705  0.000000  0.000000  0.000000  0.000000  0.000000  ;
  65  64  2000.000000  0.000000  0.084120  0.000000  0.000000  0.000000  0.000000  0.000000  ;
  65  66  2000.000000  0.000000  0.088355  0.000000  0.000000  0.000000  0.000000  0.000000  ;
  66  65  2000.000000  0.000000  0.096311  0.000000  0.000000  0.000000  0.000000  0.000000  ;
  67  68  2000.000000  0.000000  0.039206  0.000000  0.000000  0.000000  0.000000  0.000000  ;
  68  67  2000.000000  0.000000  0.041562  0.000000  0.000000  0.000000  0.000000  0.000000  ;
  67  69  2000.000000  0.000000  0.279353  0.000000  0.000000  0.000000  0.000000  0.000000  ;
  69  67  2000.000000  0.000000  0.281204  0.000000  0.000000  0.000000  0.000000  0.000000  ;
  69  70  3179.348082  0.000000  0.077249  0.000000  0.000000  0.000000  0.000000  0.000000  ;
  70  69  2919.745558  0.000000  0.082871  0.000000  0.000000  0.000000  0.000000  0.000000  ;
  69  71  875.000000  0.000000  0.231590  0.000000  0.000000  0.000000  0.000000  0.000000  ;
  71  69  1145.206340  0.000000  0.236104  0.000000  0.000000  0.000000  0.000000  0.000000  ;
