<NUMBER OF ZONES> 24
<TOTAL OD FLOW> 360600.0
<END OF METADATA>


Origin 	1 
    1 :      0.0;     2 :    100.0;     3 :    400.0; 

Origin 	2 
    1 :    100.0;     2 :      0.0;     3 :    100.0;    

Origin 	3 
    1 :    100.0;     2 :    100.0;     3 :      0.0;   
