<NUMBER OF ZONES> 24											
<NUMBER OF NODES> 24											
<FIRST THRU NODE> 1											
<NUMBER OF LINKS> 76											
<END OF METADATA>											


~ 	Init node 	Term node 	Capacity 	Length 	Free Flow Time 	B	Power	Speed limit 	Toll 	Type	;
	1	2	10000.00000	6	6	0.15	4	0	0	1	;
	1	3	30000.00000	4	4	0.15	4	0	0	1	;
	2	1	10000.00000	6	6	0.15	4	0	0	1	;
	3	1	30000.00000	4	4	0.15	4	0	0	1	;
	2	3	500.00000	80	80	0.15	4	0	0	1	;
	3	2	500.00000	80	80	0.15	4	0	0	1	;
