<NUMBER OF ZONES> 8
<TOTAL OD FLOW> 0.0
<END OF METADATA>


Origin  1  
1 :      0.0;    2 :      1000;    
3 :      4000;    4 :      2000;    5 :      4000;    
6 :      1500;    7 :      3000;    8 :      2500;    


Origin  2  
2 :      0.0;    1 :      1500;    3 :      1000;    4 :      4000;    
5 :      1400;    6 :      900;    7 :      1000;    
8 :      6000;    

Origin  3  
3 :      0.0;    1 :      6000;    2 :      2000;    
4 :      2000;    5 :      1300;    6 :      5000;    
7 :      8200;    8 :      7000;    

Origin  4  
4 :      0.0;    1 :      1500;    
2 :      2500;    3 :      3500;    5 :      700;    
6 :      3000;    7 :      5500;    8 :      2500;    


Origin  5  
5 :      0.0;    1 :      1500;    2 :      6000;    3 :      5000;    
4 :      7000;    6 :      3000;    7 :      2000;    
8 :      3000;    

Origin  6  
6 :      0.0;    1 :      7000;    2 :      2000;    
3 :      1000;    4 :      5000;    5 :      6000;    
7 :      5000;    8 :      1500;    

Origin  7  
7 :      0.0;    1 :      2000;    
2 :      1000;    3 :      8000;    4 :      3000;    
5 :      1500;    6 :      1500;    8 :      2000;    


Origin  8  
8 :      0.0;    1 :      4000;    2 :      2000;    3 :      9000;    
4 :      3000;    5 :      1000;    6 :      1500;    
7 :      3000;    
