<NUMBER OF ZONES> 8
<TOTAL OD FLOW> 0.0
<END OF METADATA>


Origin 	1 
    1 :      0.0;     2 :    1000.0;     3 :    1000.0;     4 :    5000.0;     5 :    2000.0; 
    6 :    3000.0;     7 :    5000.0;     8 :    8000.0; 

Origin 	2 
    1 :    1000.0;     2 :      0.0;     3 :    1000.0;     4 :    2000.0;     5 :    1000.0; 
    6 :    4000.0;     7 :    2000.0;     8 :    4000.0; 

Origin 	3 
    1 :    1000.0;     2 :    1000.0;     3 :      0.0;     4 :    2000.0;     5 :    1000.0; 
    6 :    3000.0;     7 :    1000.0;     8 :    2000.0;

Origin 	4 
    1 :    5000.0;     2 :    2000.0;     3 :    2000.0;     4 :      0.0;     5 :    5000.0; 
    6 :    4000.0;     7 :    4000.0;     8 :    7000.0;

Origin 	5 
    1 :    2000.0;     2 :    1000.0;     3 :    1000.0;     4 :    5000.0;     5 :      0.0; 
    6 :    2000.0;     7 :    2000.0;     8 :    5000.0;

Origin 	6 
    1 :    3000.0;     2 :    4000.0;     3 :    3000.0;     4 :    4000.0;     5 :    2000.0; 
    6 :      0.0;     7 :    4000.0;     8 :    8000.0;

Origin 	7 
    1 :    5000.0;     2 :    2000.0;     3 :    1000.0;     4 :    4000.0;     5 :    2000.0; 
    6 :    4000.0;     7 :      0.0;     8 :   10000.0;

Origin 	8 
    1 :    8000.0;     2 :    4000.0;     3 :    2000.0;     4 :    7000.0;     5 :    5000.0; 
    6 :    8000.0;     7 :   10000.0;     8 :      0.0;
