<NUMBER OF ZONES> 24
<TOTAL OD FLOW> 360600.0
<END OF METADATA>


Origin 	1 
    1 :      0.0;     2 :    100.0;     3 :    100.0;     4 :    500.0;     5 :    200.0; 
    6 :    300.0;     7 :    500.0;     8 :    800.0;     9 :    500.0;    10 :   1300.0; 
   11 :    500.0;    12 :    200.0;    13 :    500.0;    14 :    300.0;    15 :    500.0; 
   16 :    500.0;    17 :    400.0;    18 :    100.0;    19 :    300.0;    20 :    300.0; 
   21 :    100.0;    22 :    400.0;    23 :    300.0;    24 :    100.0; 
   25 :      0.0;    26 :      0.0;    27 :      0.0;    28 :      0.0;    29 :      0.0; 
   30 :      0.0;    31 :      0.0;    32 :      0.0;    33 :      0.0;    34 :      0.0; 
   35 :      0.0;    36 :      0.0;    37 :      0.0;    38 :      0.0;    39 :      0.0; 
   40 :      0.0;    41 :      0.0;    42 :      0.0;    43 :      0.0;    44 :      0.0; 
   45 :      0.0;    46 :      0.0;    47 :      0.0;    48 :      0.0; 

Origin 	2 
    1 :    100.0;     2 :      0.0;     3 :    100.0;     4 :    200.0;     5 :    100.0; 
    6 :    400.0;     7 :    200.0;     8 :    400.0;     9 :    200.0;    10 :    600.0; 
   11 :    200.0;    12 :    100.0;    13 :    300.0;    14 :    100.0;    15 :    100.0; 
   16 :    400.0;    17 :    200.0;    18 :      0.0;    19 :    100.0;    20 :    100.0; 
   21 :      0.0;    22 :    100.0;    23 :      0.0;    24 :      0.0; 
   25 :      0.0;    26 :      0.0;    27 :      0.0;    28 :      0.0;    29 :      0.0; 
   30 :      0.0;    31 :      0.0;    32 :      0.0;    33 :      0.0;    34 :      0.0; 
   35 :      0.0;    36 :      0.0;    37 :      0.0;    38 :      0.0;    39 :      0.0; 
   40 :      0.0;    41 :      0.0;    42 :      0.0;    43 :      0.0;    44 :      0.0; 
   45 :      0.0;    46 :      0.0;    47 :      0.0;    48 :      0.0; 

Origin 	3 
    1 :    100.0;     2 :    100.0;     3 :      0.0;     4 :    200.0;     5 :    100.0; 
    6 :    300.0;     7 :    100.0;     8 :    200.0;     9 :    100.0;    10 :    300.0; 
   11 :    300.0;    12 :    200.0;    13 :    100.0;    14 :    100.0;    15 :    100.0; 
   16 :    200.0;    17 :    100.0;    18 :      0.0;    19 :      0.0;    20 :      0.0; 
   21 :      0.0;    22 :    100.0;    23 :    100.0;    24 :      0.0; 
   25 :      0.0;    26 :      0.0;    27 :      0.0;    28 :      0.0;    29 :      0.0; 
   30 :      0.0;    31 :      0.0;    32 :      0.0;    33 :      0.0;    34 :      0.0; 
   35 :      0.0;    36 :      0.0;    37 :      0.0;    38 :      0.0;    39 :      0.0; 
   40 :      0.0;    41 :      0.0;    42 :      0.0;    43 :      0.0;    44 :      0.0; 
   45 :      0.0;    46 :      0.0;    47 :      0.0;    48 :      0.0; 

Origin 	4 
    1 :    500.0;     2 :    200.0;     3 :    200.0;     4 :      0.0;     5 :    500.0; 
    6 :    400.0;     7 :    400.0;     8 :    700.0;     9 :    700.0;    10 :   1200.0; 
   11 :   1400.0;    12 :    600.0;    13 :    600.0;    14 :    500.0;    15 :    500.0; 
   16 :    800.0;    17 :    500.0;    18 :    100.0;    19 :    200.0;    20 :    300.0; 
   21 :    200.0;    22 :    400.0;    23 :    500.0;    24 :    200.0; 
   25 :      0.0;    26 :      0.0;    27 :      0.0;    28 :      0.0;    29 :      0.0; 
   30 :      0.0;    31 :      0.0;    32 :      0.0;    33 :      0.0;    34 :      0.0; 
   35 :      0.0;    36 :      0.0;    37 :      0.0;    38 :      0.0;    39 :      0.0; 
   40 :      0.0;    41 :      0.0;    42 :      0.0;    43 :      0.0;    44 :      0.0; 
   45 :      0.0;    46 :      0.0;    47 :      0.0;    48 :      0.0; 

Origin 	5 
    1 :    200.0;     2 :    100.0;     3 :    100.0;     4 :    500.0;     5 :      0.0; 
    6 :    200.0;     7 :    200.0;     8 :    500.0;     9 :    800.0;    10 :   1000.0; 
   11 :    500.0;    12 :    200.0;    13 :    200.0;    14 :    100.0;    15 :    200.0; 
   16 :    500.0;    17 :    200.0;    18 :      0.0;    19 :    100.0;    20 :    100.0; 
   21 :    100.0;    22 :    200.0;    23 :    100.0;    24 :      0.0; 
   25 :      0.0;    26 :      0.0;    27 :      0.0;    28 :      0.0;    29 :      0.0; 
   30 :      0.0;    31 :      0.0;    32 :      0.0;    33 :      0.0;    34 :      0.0; 
   35 :      0.0;    36 :      0.0;    37 :      0.0;    38 :      0.0;    39 :      0.0; 
   40 :      0.0;    41 :      0.0;    42 :      0.0;    43 :      0.0;    44 :      0.0; 
   45 :      0.0;    46 :      0.0;    47 :      0.0;    48 :      0.0; 

Origin 	6 
    1 :    300.0;     2 :    400.0;     3 :    300.0;     4 :    400.0;     5 :    200.0; 
    6 :      0.0;     7 :    400.0;     8 :    800.0;     9 :    400.0;    10 :    800.0; 
   11 :    400.0;    12 :    200.0;    13 :    200.0;    14 :    100.0;    15 :    200.0; 
   16 :    900.0;    17 :    500.0;    18 :    100.0;    19 :    200.0;    20 :    300.0; 
   21 :    100.0;    22 :    200.0;    23 :    100.0;    24 :    100.0; 
   25 :      0.0;    26 :      0.0;    27 :      0.0;    28 :      0.0;    29 :      0.0; 
   30 :      0.0;    31 :      0.0;    32 :      0.0;    33 :      0.0;    34 :      0.0; 
   35 :      0.0;    36 :      0.0;    37 :      0.0;    38 :      0.0;    39 :      0.0; 
   40 :      0.0;    41 :      0.0;    42 :      0.0;    43 :      0.0;    44 :      0.0; 
   45 :      0.0;    46 :      0.0;    47 :      0.0;    48 :      0.0; 

Origin 	7 
    1 :    500.0;     2 :    200.0;     3 :    100.0;     4 :    400.0;     5 :    200.0; 
    6 :    400.0;     7 :      0.0;     8 :   1000.0;     9 :    600.0;    10 :   1900.0; 
   11 :    500.0;    12 :    700.0;    13 :    400.0;    14 :    200.0;    15 :    500.0; 
   16 :   1400.0;    17 :   1000.0;    18 :    200.0;    19 :    400.0;    20 :    500.0; 
   21 :    200.0;    22 :    500.0;    23 :    200.0;    24 :    100.0; 
   25 :      0.0;    26 :      0.0;    27 :      0.0;    28 :      0.0;    29 :      0.0; 
   30 :      0.0;    31 :      0.0;    32 :      0.0;    33 :      0.0;    34 :      0.0; 
   35 :      0.0;    36 :      0.0;    37 :      0.0;    38 :      0.0;    39 :      0.0; 
   40 :      0.0;    41 :      0.0;    42 :      0.0;    43 :      0.0;    44 :      0.0; 
   45 :      0.0;    46 :      0.0;    47 :      0.0;    48 :      0.0; 

Origin 	8 
    1 :    800.0;     2 :    400.0;     3 :    200.0;     4 :    700.0;     5 :    500.0; 
    6 :    800.0;     7 :   1000.0;     8 :      0.0;     9 :    800.0;    10 :   1600.0; 
   11 :    800.0;    12 :    600.0;    13 :    600.0;    14 :    400.0;    15 :    600.0; 
   16 :   2200.0;    17 :   1400.0;    18 :    300.0;    19 :    700.0;    20 :    900.0; 
   21 :    400.0;    22 :    500.0;    23 :    300.0;    24 :    200.0; 
   25 :      0.0;    26 :      0.0;    27 :      0.0;    28 :      0.0;    29 :      0.0; 
   30 :      0.0;    31 :      0.0;    32 :      0.0;    33 :      0.0;    34 :      0.0; 
   35 :      0.0;    36 :      0.0;    37 :      0.0;    38 :      0.0;    39 :      0.0; 
   40 :      0.0;    41 :      0.0;    42 :      0.0;    43 :      0.0;    44 :      0.0; 
   45 :      0.0;    46 :      0.0;    47 :      0.0;    48 :      0.0; 

Origin 	9 
    1 :    500.0;     2 :    200.0;     3 :    100.0;     4 :    700.0;     5 :    800.0; 
    6 :    400.0;     7 :    600.0;     8 :    800.0;     9 :      0.0;    10 :   2800.0; 
   11 :   1400.0;    12 :    600.0;    13 :    600.0;    14 :    600.0;    15 :    900.0; 
   16 :   1400.0;    17 :    900.0;    18 :    200.0;    19 :    400.0;    20 :    600.0; 
   21 :    300.0;    22 :    700.0;    23 :    500.0;    24 :    200.0; 
   25 :      0.0;    26 :      0.0;    27 :      0.0;    28 :      0.0;    29 :      0.0; 
   30 :      0.0;    31 :      0.0;    32 :      0.0;    33 :      0.0;    34 :      0.0; 
   35 :      0.0;    36 :      0.0;    37 :      0.0;    38 :      0.0;    39 :      0.0; 
   40 :      0.0;    41 :      0.0;    42 :      0.0;    43 :      0.0;    44 :      0.0; 
   45 :      0.0;    46 :      0.0;    47 :      0.0;    48 :      0.0; 

Origin 	10 
    1 :   1300.0;     2 :    600.0;     3 :    300.0;     4 :   1200.0;     5 :   1000.0; 
    6 :    800.0;     7 :   1900.0;     8 :   1600.0;     9 :   2800.0;    10 :      0.0; 
   11 :   4000.0;    12 :   2000.0;    13 :   1900.0;    14 :   2100.0;    15 :   4000.0; 
   16 :   4400.0;    17 :   3900.0;    18 :    700.0;    19 :   1800.0;    20 :   2500.0; 
   21 :   1200.0;    22 :   2600.0;    23 :   1800.0;    24 :    800.0; 
   25 :      0.0;    26 :      0.0;    27 :      0.0;    28 :      0.0;    29 :      0.0; 
   30 :      0.0;    31 :      0.0;    32 :      0.0;    33 :      0.0;    34 :      0.0; 
   35 :      0.0;    36 :      0.0;    37 :      0.0;    38 :      0.0;    39 :      0.0; 
   40 :      0.0;    41 :      0.0;    42 :      0.0;    43 :      0.0;    44 :      0.0; 
   45 :      0.0;    46 :      0.0;    47 :      0.0;    48 :      0.0; 

Origin 	11 
    1 :    500.0;     2 :    200.0;     3 :    300.0;     4 :   1500.0;     5 :    500.0; 
    6 :    400.0;     7 :    500.0;     8 :    800.0;     9 :   1400.0;    10 :   3900.0; 
   11 :      0.0;    12 :   1400.0;    13 :   1000.0;    14 :   1600.0;    15 :   1400.0; 
   16 :   1400.0;    17 :   1000.0;    18 :    100.0;    19 :    400.0;    20 :    600.0; 
   21 :    400.0;    22 :   1100.0;    23 :   1300.0;    24 :    600.0;
   25 :      0.0;    26 :      0.0;    27 :      0.0;    28 :      0.0;    29 :      0.0; 
   30 :      0.0;    31 :      0.0;    32 :      0.0;    33 :      0.0;    34 :      0.0; 
   35 :      0.0;    36 :      0.0;    37 :      0.0;    38 :      0.0;    39 :      0.0; 
   40 :      0.0;    41 :      0.0;    42 :      0.0;    43 :      0.0;    44 :      0.0; 
   45 :      0.0;    46 :      0.0;    47 :      0.0;    48 :      0.0;  

Origin 	12 
    1 :    200.0;     2 :    100.0;     3 :    200.0;     4 :    600.0;     5 :    200.0; 
    6 :    200.0;     7 :    700.0;     8 :    600.0;     9 :    600.0;    10 :   2000.0; 
   11 :   1400.0;    12 :      0.0;    13 :   1300.0;    14 :    700.0;    15 :    700.0; 
   16 :    700.0;    17 :    600.0;    18 :    200.0;    19 :    300.0;    20 :    400.0; 
   21 :    300.0;    22 :    700.0;    23 :    700.0;    24 :    500.0; 
   25 :      0.0;    26 :      0.0;    27 :      0.0;    28 :      0.0;    29 :      0.0; 
   30 :      0.0;    31 :      0.0;    32 :      0.0;    33 :      0.0;    34 :      0.0; 
   35 :      0.0;    36 :      0.0;    37 :      0.0;    38 :      0.0;    39 :      0.0; 
   40 :      0.0;    41 :      0.0;    42 :      0.0;    43 :      0.0;    44 :      0.0; 
   45 :      0.0;    46 :      0.0;    47 :      0.0;    48 :      0.0; 

Origin 	13 
    1 :    500.0;     2 :    300.0;     3 :    100.0;     4 :    600.0;     5 :    200.0; 
    6 :    200.0;     7 :    400.0;     8 :    600.0;     9 :    600.0;    10 :   1900.0; 
   11 :   1000.0;    12 :   1300.0;    13 :      0.0;    14 :    600.0;    15 :    700.0; 
   16 :    600.0;    17 :    500.0;    18 :    100.0;    19 :    300.0;    20 :    600.0; 
   21 :    600.0;    22 :   1300.0;    23 :    800.0;    24 :    800.0; 
   25 :      0.0;    26 :      0.0;    27 :      0.0;    28 :      0.0;    29 :      0.0; 
   30 :      0.0;    31 :      0.0;    32 :      0.0;    33 :      0.0;    34 :      0.0; 
   35 :      0.0;    36 :      0.0;    37 :      0.0;    38 :      0.0;    39 :      0.0; 
   40 :      0.0;    41 :      0.0;    42 :      0.0;    43 :      0.0;    44 :      0.0; 
   45 :      0.0;    46 :      0.0;    47 :      0.0;    48 :      0.0; 

Origin 	14 
    1 :    300.0;     2 :    100.0;     3 :    100.0;     4 :    500.0;     5 :    100.0; 
    6 :    100.0;     7 :    200.0;     8 :    400.0;     9 :    600.0;    10 :   2100.0; 
   11 :   1600.0;    12 :    700.0;    13 :    600.0;    14 :      0.0;    15 :   1300.0; 
   16 :    700.0;    17 :    700.0;    18 :    100.0;    19 :    300.0;    20 :    500.0; 
   21 :    400.0;    22 :   1200.0;    23 :   1100.0;    24 :    400.0; 
   25 :      0.0;    26 :      0.0;    27 :      0.0;    28 :      0.0;    29 :      0.0; 
   30 :      0.0;    31 :      0.0;    32 :      0.0;    33 :      0.0;    34 :      0.0; 
   35 :      0.0;    36 :      0.0;    37 :      0.0;    38 :      0.0;    39 :      0.0; 
   40 :      0.0;    41 :      0.0;    42 :      0.0;    43 :      0.0;    44 :      0.0; 
   45 :      0.0;    46 :      0.0;    47 :      0.0;    48 :      0.0; 

Origin 	15 
    1 :    500.0;     2 :    100.0;     3 :    100.0;     4 :    500.0;     5 :    200.0; 
    6 :    200.0;     7 :    500.0;     8 :    600.0;     9 :   1000.0;    10 :   4000.0; 
   11 :   1400.0;    12 :    700.0;    13 :    700.0;    14 :   1300.0;    15 :      0.0; 
   16 :   1200.0;    17 :   1500.0;    18 :    200.0;    19 :    800.0;    20 :   1100.0; 
   21 :    800.0;    22 :   2600.0;    23 :   1000.0;    24 :    400.0; 
   25 :      0.0;    26 :      0.0;    27 :      0.0;    28 :      0.0;    29 :      0.0; 
   30 :      0.0;    31 :      0.0;    32 :      0.0;    33 :      0.0;    34 :      0.0; 
   35 :      0.0;    36 :      0.0;    37 :      0.0;    38 :      0.0;    39 :      0.0; 
   40 :      0.0;    41 :      0.0;    42 :      0.0;    43 :      0.0;    44 :      0.0; 
   45 :      0.0;    46 :      0.0;    47 :      0.0;    48 :      0.0; 

Origin 	16 
    1 :    500.0;     2 :    400.0;     3 :    200.0;     4 :    800.0;     5 :    500.0; 
    6 :    900.0;     7 :   1400.0;     8 :   2200.0;     9 :   1400.0;    10 :   4400.0; 
   11 :   1400.0;    12 :    700.0;    13 :    600.0;    14 :    700.0;    15 :   1200.0; 
   16 :      0.0;    17 :   2800.0;    18 :    500.0;    19 :   1300.0;    20 :   1600.0; 
   21 :    600.0;    22 :   1200.0;    23 :    500.0;    24 :    300.0; 
   25 :      0.0;    26 :      0.0;    27 :      0.0;    28 :      0.0;    29 :      0.0; 
   30 :      0.0;    31 :      0.0;    32 :      0.0;    33 :      0.0;    34 :      0.0; 
   35 :      0.0;    36 :      0.0;    37 :      0.0;    38 :      0.0;    39 :      0.0; 
   40 :      0.0;    41 :      0.0;    42 :      0.0;    43 :      0.0;    44 :      0.0; 
   45 :      0.0;    46 :      0.0;    47 :      0.0;    48 :      0.0; 

Origin 	17 
    1 :    400.0;     2 :    200.0;     3 :    100.0;     4 :    500.0;     5 :    200.0; 
    6 :    500.0;     7 :   1000.0;     8 :   1400.0;     9 :    900.0;    10 :   3900.0; 
   11 :   1000.0;    12 :    600.0;    13 :    500.0;    14 :    700.0;    15 :   1500.0; 
   16 :   2800.0;    17 :      0.0;    18 :    600.0;    19 :   1700.0;    20 :   1700.0; 
   21 :    600.0;    22 :   1700.0;    23 :    600.0;    24 :    300.0; 
   25 :      0.0;    26 :      0.0;    27 :      0.0;    28 :      0.0;    29 :      0.0; 
   30 :      0.0;    31 :      0.0;    32 :      0.0;    33 :      0.0;    34 :      0.0; 
   35 :      0.0;    36 :      0.0;    37 :      0.0;    38 :      0.0;    39 :      0.0; 
   40 :      0.0;    41 :      0.0;    42 :      0.0;    43 :      0.0;    44 :      0.0; 
   45 :      0.0;    46 :      0.0;    47 :      0.0;    48 :      0.0; 

Origin 	18 
    1 :    100.0;     2 :      0.0;     3 :      0.0;     4 :    100.0;     5 :      0.0; 
    6 :    100.0;     7 :    200.0;     8 :    300.0;     9 :    200.0;    10 :    700.0; 
   11 :    200.0;    12 :    200.0;    13 :    100.0;    14 :    100.0;    15 :    200.0; 
   16 :    500.0;    17 :    600.0;    18 :      0.0;    19 :    300.0;    20 :    400.0; 
   21 :    100.0;    22 :    300.0;    23 :    100.0;    24 :      0.0;
   25 :      0.0;    26 :      0.0;    27 :      0.0;    28 :      0.0;    29 :      0.0; 
   30 :      0.0;    31 :      0.0;    32 :      0.0;    33 :      0.0;    34 :      0.0; 
   35 :      0.0;    36 :      0.0;    37 :      0.0;    38 :      0.0;    39 :      0.0; 
   40 :      0.0;    41 :      0.0;    42 :      0.0;    43 :      0.0;    44 :      0.0; 
   45 :      0.0;    46 :      0.0;    47 :      0.0;    48 :      0.0;  

Origin 	19 
    1 :    300.0;     2 :    100.0;     3 :      0.0;     4 :    200.0;     5 :    100.0; 
    6 :    200.0;     7 :    400.0;     8 :    700.0;     9 :    400.0;    10 :   1800.0; 
   11 :    400.0;    12 :    300.0;    13 :    300.0;    14 :    300.0;    15 :    800.0; 
   16 :   1300.0;    17 :   1700.0;    18 :    300.0;    19 :      0.0;    20 :   1200.0; 
   21 :    400.0;    22 :   1200.0;    23 :    300.0;    24 :    100.0; 
   25 :      0.0;    26 :      0.0;    27 :      0.0;    28 :      0.0;    29 :      0.0; 
   30 :      0.0;    31 :      0.0;    32 :      0.0;    33 :      0.0;    34 :      0.0; 
   35 :      0.0;    36 :      0.0;    37 :      0.0;    38 :      0.0;    39 :      0.0; 
   40 :      0.0;    41 :      0.0;    42 :      0.0;    43 :      0.0;    44 :      0.0; 
   45 :      0.0;    46 :      0.0;    47 :      0.0;    48 :      0.0; 

Origin 	20 
    1 :    300.0;     2 :    100.0;     3 :      0.0;     4 :    300.0;     5 :    100.0; 
    6 :    300.0;     7 :    500.0;     8 :    900.0;     9 :    600.0;    10 :   2500.0; 
   11 :    600.0;    12 :    500.0;    13 :    600.0;    14 :    500.0;    15 :   1100.0; 
   16 :   1600.0;    17 :   1700.0;    18 :    400.0;    19 :   1200.0;    20 :      0.0; 
   21 :   1200.0;    22 :   2400.0;    23 :    700.0;    24 :    400.0; 
   25 :      0.0;    26 :      0.0;    27 :      0.0;    28 :      0.0;    29 :      0.0; 
   30 :      0.0;    31 :      0.0;    32 :      0.0;    33 :      0.0;    34 :      0.0; 
   35 :      0.0;    36 :      0.0;    37 :      0.0;    38 :      0.0;    39 :      0.0; 
   40 :      0.0;    41 :      0.0;    42 :      0.0;    43 :      0.0;    44 :      0.0; 
   45 :      0.0;    46 :      0.0;    47 :      0.0;    48 :      0.0; 

Origin 	21 
    1 :    100.0;     2 :      0.0;     3 :      0.0;     4 :    200.0;     5 :    100.0; 
    6 :    100.0;     7 :    200.0;     8 :    400.0;     9 :    300.0;    10 :   1200.0; 
   11 :    400.0;    12 :    300.0;    13 :    600.0;    14 :    400.0;    15 :    800.0; 
   16 :    600.0;    17 :    600.0;    18 :    100.0;    19 :    400.0;    20 :   1200.0; 
   21 :      0.0;    22 :   1800.0;    23 :    700.0;    24 :    500.0; 
   25 :      0.0;    26 :      0.0;    27 :      0.0;    28 :      0.0;    29 :      0.0; 
   30 :      0.0;    31 :      0.0;    32 :      0.0;    33 :      0.0;    34 :      0.0; 
   35 :      0.0;    36 :      0.0;    37 :      0.0;    38 :      0.0;    39 :      0.0; 
   40 :      0.0;    41 :      0.0;    42 :      0.0;    43 :      0.0;    44 :      0.0; 
   45 :      0.0;    46 :      0.0;    47 :      0.0;    48 :      0.0; 

Origin 	22 
    1 :    400.0;     2 :    100.0;     3 :    100.0;     4 :    400.0;     5 :    200.0; 
    6 :    200.0;     7 :    500.0;     8 :    500.0;     9 :    700.0;    10 :   2600.0; 
   11 :   1100.0;    12 :    700.0;    13 :   1300.0;    14 :   1200.0;    15 :   2600.0; 
   16 :   1200.0;    17 :   1700.0;    18 :    300.0;    19 :   1200.0;    20 :   2400.0; 
   21 :   1800.0;    22 :      0.0;    23 :   2100.0;    24 :   1100.0; 
   25 :      0.0;    26 :      0.0;    27 :      0.0;    28 :      0.0;    29 :      0.0; 
   30 :      0.0;    31 :      0.0;    32 :      0.0;    33 :      0.0;    34 :      0.0; 
   35 :      0.0;    36 :      0.0;    37 :      0.0;    38 :      0.0;    39 :      0.0; 
   40 :      0.0;    41 :      0.0;    42 :      0.0;    43 :      0.0;    44 :      0.0; 
   45 :      0.0;    46 :      0.0;    47 :      0.0;    48 :      0.0; 

Origin 	23 
    1 :    300.0;     2 :      0.0;     3 :    100.0;     4 :    500.0;     5 :    100.0; 
    6 :    100.0;     7 :    200.0;     8 :    300.0;     9 :    500.0;    10 :   1800.0; 
   11 :   1300.0;    12 :    700.0;    13 :    800.0;    14 :   1100.0;    15 :   1000.0; 
   16 :    500.0;    17 :    600.0;    18 :    100.0;    19 :    300.0;    20 :    700.0; 
   21 :    700.0;    22 :   2100.0;    23 :      0.0;    24 :    700.0; 
   25 :      0.0;    26 :      0.0;    27 :      0.0;    28 :      0.0;    29 :      0.0; 
   30 :      0.0;    31 :      0.0;    32 :      0.0;    33 :      0.0;    34 :      0.0; 
   35 :      0.0;    36 :      0.0;    37 :      0.0;    38 :      0.0;    39 :      0.0; 
   40 :      0.0;    41 :      0.0;    42 :      0.0;    43 :      0.0;    44 :      0.0; 
   45 :      0.0;    46 :      0.0;    47 :      0.0;    48 :      0.0; 

Origin 	24 
    1 :    100.0;     2 :      0.0;     3 :      0.0;     4 :    200.0;     5 :      0.0; 
    6 :    100.0;     7 :    100.0;     8 :    200.0;     9 :    200.0;    10 :    800.0; 
   11 :    600.0;    12 :    500.0;    13 :    700.0;    14 :    400.0;    15 :    400.0; 
   16 :    300.0;    17 :    300.0;    18 :      0.0;    19 :    100.0;    20 :    400.0; 
   21 :    500.0;    22 :   1100.0;    23 :    700.0;    24 :      0.0; 
   25 :      0.0;    26 :      0.0;    27 :      0.0;    28 :      0.0;    29 :      0.0; 
   30 :      0.0;    31 :      0.0;    32 :      0.0;    33 :      0.0;    34 :      0.0; 
   35 :      0.0;    36 :      0.0;    37 :      0.0;    38 :      0.0;    39 :      0.0; 
   40 :      0.0;    41 :      0.0;    42 :      0.0;    43 :      0.0;    44 :      0.0; 
   45 :      0.0;    46 :      0.0;    47 :      0.0;    48 :      0.0; 

Origin 	25 
   1 :      0.0;    2 :      0.0;    3 :      0.0;    4 :      0.0;    5 :      0.0; 
   6 :      0.0;    7 :      0.0;    8 :      0.0;    9 :      0.0;    10 :      0.0; 
   11 :      0.0;    12 :      0.0;    13 :      0.0;    14 :      0.0;    15 :      0.0; 
   16 :      0.0;    17 :      0.0;    18 :      0.0;    19 :      0.0;    20 :      0.0; 
   21 :      0.0;    22 :      0.0;    23 :      0.0;    24 :      0.0; 
    25 :      0.0;     26 :    100.0;     27 :    100.0;     28 :    500.0;     29 :    200.0; 
    30 :    300.0;     31 :    500.0;     32 :    800.0;     33 :    500.0;    34 :   1300.0; 
   35 :    500.0;    36 :    200.0;    37 :    500.0;    38 :    300.0;    39 :    500.0; 
   40 :    500.0;    41 :    400.0;    42 :    100.0;    43 :    300.0;    44 :    300.0; 
   45 :    100.0;    46 :    400.0;    47 :    300.0;    48 :    100.0; 

Origin 	26
   1 :      0.0;    2 :      0.0;    3 :      0.0;    4 :      0.0;    5 :      0.0; 
   6 :      0.0;    7 :      0.0;    8 :      0.0;    9 :      0.0;    10 :      0.0; 
   11 :      0.0;    12 :      0.0;    13 :      0.0;    14 :      0.0;    15 :      0.0; 
   16 :      0.0;    17 :      0.0;    18 :      0.0;    19 :      0.0;    20 :      0.0; 
   21 :      0.0;    22 :      0.0;    23 :      0.0;    24 :      0.0; 
    25 :    100.0;     26 :      0.0;     27 :    100.0;     28 :    200.0;     29 :    100.0; 
    30 :    400.0;     31 :    200.0;     32 :    400.0;     33 :    200.0;    34 :    600.0; 
   35 :    200.0;    36 :    100.0;    37 :    300.0;    38 :    100.0;    39 :    100.0; 
   40 :    400.0;    41 :    200.0;    42 :      0.0;    43 :    100.0;    44 :    100.0; 
   45 :      0.0;    46 :    100.0;    47 :      0.0;    48 :      0.0; 

Origin 	27 
   1 :      0.0;    2 :      0.0;    3 :      0.0;    4 :      0.0;    5 :      0.0; 
   6 :      0.0;    7 :      0.0;    8 :      0.0;    9 :      0.0;    10 :      0.0; 
   11 :      0.0;    12 :      0.0;    13 :      0.0;    14 :      0.0;    15 :      0.0; 
   16 :      0.0;    17 :      0.0;    18 :      0.0;    19 :      0.0;    20 :      0.0; 
   21 :      0.0;    22 :      0.0;    23 :      0.0;    24 :      0.0; 
    25 :    100.0;     26 :    100.0;     27 :      0.0;     28 :    200.0;     29 :    100.0; 
    30 :    300.0;     31 :    100.0;     32 :    200.0;     33 :    100.0;    34 :    300.0; 
   35 :    300.0;    36 :    200.0;    37 :    100.0;    38 :    100.0;    39 :    100.0; 
   40 :    200.0;    41 :    100.0;    42 :      0.0;    43 :      0.0;    44 :      0.0; 
   45 :      0.0;    46 :    100.0;    47 :    100.0;    48 :      0.0; 

Origin 	28 
   1 :      0.0;    2 :      0.0;    3 :      0.0;    4 :      0.0;    5 :      0.0; 
   6 :      0.0;    7 :      0.0;    8 :      0.0;    9 :      0.0;    10 :      0.0; 
   11 :      0.0;    12 :      0.0;    13 :      0.0;    14 :      0.0;    15 :      0.0; 
   16 :      0.0;    17 :      0.0;    18 :      0.0;    19 :      0.0;    20 :      0.0; 
   21 :      0.0;    22 :      0.0;    23 :      0.0;    24 :      0.0; 
    25 :    500.0;     26 :    200.0;     27 :    200.0;     28 :      0.0;     29 :    500.0; 
    30 :    400.0;     31 :    400.0;     32 :    700.0;     33 :    700.0;    34 :   1200.0; 
   35 :   1400.0;    36 :    600.0;    37 :    600.0;    38 :    500.0;    39 :    500.0; 
   40 :    800.0;    41 :    500.0;    42 :    100.0;    43 :    200.0;    44 :    300.0; 
   45 :    200.0;    46 :    400.0;    47 :    500.0;    48 :    200.0; 

Origin 	29 
   1 :      0.0;    2 :      0.0;    3 :      0.0;    4 :      0.0;    5 :      0.0; 
   6 :      0.0;    7 :      0.0;    8 :      0.0;    9 :      0.0;    10 :      0.0; 
   11 :      0.0;    12 :      0.0;    13 :      0.0;    14 :      0.0;    15 :      0.0; 
   16 :      0.0;    17 :      0.0;    18 :      0.0;    19 :      0.0;    20 :      0.0; 
   21 :      0.0;    22 :      0.0;    23 :      0.0;    24 :      0.0; 
    25 :    200.0;     26 :    100.0;     27 :    100.0;     28 :    500.0;     29 :      0.0; 
    30 :    200.0;     31 :    200.0;     32 :    500.0;     33 :    800.0;    34 :   1000.0; 
   35 :    500.0;    36 :    200.0;    37 :    200.0;    38 :    100.0;    39 :    200.0; 
   40 :    500.0;    41 :    200.0;    42 :      0.0;    43 :    100.0;    44 :    100.0; 
   45 :    100.0;    46 :    200.0;    47 :    100.0;    48 :      0.0; 

Origin 	30 
   1 :      0.0;    2 :      0.0;    3 :      0.0;    4 :      0.0;    5 :      0.0; 
   6 :      0.0;    7 :      0.0;    8 :      0.0;    9 :      0.0;    10 :      0.0; 
   11 :      0.0;    12 :      0.0;    13 :      0.0;    14 :      0.0;    15 :      0.0; 
   16 :      0.0;    17 :      0.0;    18 :      0.0;    19 :      0.0;    20 :      0.0; 
   21 :      0.0;    22 :      0.0;    23 :      0.0;    24 :      0.0; 
    25 :    300.0;     26 :    400.0;     27 :    300.0;     28 :    400.0;     29 :    200.0; 
    30 :      0.0;     31 :    400.0;     32 :    800.0;     33 :    400.0;    34 :    800.0; 
   35 :    400.0;    36 :    200.0;    37 :    200.0;    38 :    100.0;    39 :    200.0; 
   40 :    900.0;    41 :    500.0;    42 :    100.0;    43 :    200.0;    44 :    300.0; 
   45 :    100.0;    46 :    200.0;    47 :    100.0;    48 :    100.0; 

Origin 	31 
   1 :      0.0;    2 :      0.0;    3 :      0.0;    4 :      0.0;    5 :      0.0; 
   6 :      0.0;    7 :      0.0;    8 :      0.0;    9 :      0.0;    10 :      0.0; 
   11 :      0.0;    12 :      0.0;    13 :      0.0;    14 :      0.0;    15 :      0.0; 
   16 :      0.0;    17 :      0.0;    18 :      0.0;    19 :      0.0;    20 :      0.0; 
   21 :      0.0;    22 :      0.0;    23 :      0.0;    24 :      0.0; 
    25 :    500.0;     26 :    200.0;     27 :    100.0;     28 :    400.0;     29 :    200.0; 
    30 :    400.0;     31 :      0.0;     32 :   1000.0;     33 :    600.0;    34 :   1900.0; 
   35 :    500.0;    36 :    700.0;    37 :    400.0;    38 :    200.0;    39 :    500.0; 
   40 :   1400.0;    41 :   1000.0;    42 :    200.0;    43 :    400.0;    44 :    500.0; 
   45 :    200.0;    46 :    500.0;    47 :    200.0;    48 :    100.0; 

Origin 	32 
   1 :      0.0;    2 :      0.0;    3 :      0.0;    4 :      0.0;    5 :      0.0; 
   6 :      0.0;    7 :      0.0;    8 :      0.0;    9 :      0.0;    10 :      0.0; 
   11 :      0.0;    12 :      0.0;    13 :      0.0;    14 :      0.0;    15 :      0.0; 
   16 :      0.0;    17 :      0.0;    18 :      0.0;    19 :      0.0;    20 :      0.0; 
   21 :      0.0;    22 :      0.0;    23 :      0.0;    24 :      0.0; 
    25 :    800.0;     26 :    400.0;     27 :    200.0;     28 :    700.0;     29 :    500.0; 
    30 :    800.0;     31 :   1000.0;     32 :      0.0;     33 :    800.0;    34 :   1600.0; 
   35 :    800.0;    36 :    600.0;    37 :    600.0;    38 :    400.0;    39 :    600.0; 
   40 :   2200.0;    41 :   1400.0;    42 :    300.0;    43 :    700.0;    44 :    900.0; 
   45 :    400.0;    46 :    500.0;    47 :    300.0;    48 :    200.0; 

Origin 	33 
   1 :      0.0;    2 :      0.0;    3 :      0.0;    4 :      0.0;    5 :      0.0; 
   6 :      0.0;    7 :      0.0;    8 :      0.0;    9 :      0.0;    10 :      0.0; 
   11 :      0.0;    12 :      0.0;    13 :      0.0;    14 :      0.0;    15 :      0.0; 
   16 :      0.0;    17 :      0.0;    18 :      0.0;    19 :      0.0;    20 :      0.0; 
   21 :      0.0;    22 :      0.0;    23 :      0.0;    24 :      0.0; 
    25 :    500.0;     26 :    200.0;     27 :    100.0;     28 :    700.0;     29 :    800.0; 
    30 :    400.0;     31 :    600.0;     32 :    800.0;     33 :      0.0;    34 :   2800.0; 
   35 :   1400.0;    36 :    600.0;    37 :    600.0;    38 :    600.0;    39 :    900.0; 
   40 :   1400.0;    41 :    900.0;    42 :    200.0;    43 :    400.0;    44 :    600.0; 
   45 :    300.0;    46 :    700.0;    47 :    500.0;    48 :    200.0; 

Origin 	34 
   1 :      0.0;    2 :      0.0;    3 :      0.0;    4 :      0.0;    5 :      0.0; 
   6 :      0.0;    7 :      0.0;    8 :      0.0;    9 :      0.0;    10 :      0.0; 
   11 :      0.0;    12 :      0.0;    13 :      0.0;    14 :      0.0;    15 :      0.0; 
   16 :      0.0;    17 :      0.0;    18 :      0.0;    19 :      0.0;    20 :      0.0; 
   21 :      0.0;    22 :      0.0;    23 :      0.0;    24 :      0.0; 
    25 :   1300.0;     26 :    600.0;     27 :    300.0;     28 :   1200.0;     29 :   1000.0; 
    30 :    800.0;     31 :   1900.0;     32 :   1600.0;     33 :   2800.0;    34 :      0.0; 