<NUMBER OF ZONES> 8
<TOTAL OD FLOW> 0.0
<END OF METADATA>


Origin  1  
1 :      0.0;    2 :      0.000000;    
3 :      0.002473;    4 :      0.000000;    5 :      0.002323;    
6 :      0.002473;    7 :      5398.188451;    8 :      0.000000;    


Origin  2  
2 :      0.0;    1 :      0.001245;    3 :      0.002471;    4 :      3117.647922;    
5 :      0.002348;    6 :      0.002472;    7 :      598.827636;    
8 :      0.002463;    

Origin  3  
3 :      0.0;    1 :      128.867793;    2 :      5406.178496;    
4 :      138.671116;    5 :      0.665001;    6 :      1221.413887;    
7 :      0.000002;    8 :      7051.428000;    

Origin  4  
4 :      0.0;    1 :      1897.769697;    
2 :      1770.333299;    3 :      1.254893;    5 :      3560.782798;    
6 :      1.255950;    7 :      5134.852131;    8 :      4239.886950;    


Origin  5  
5 :      0.0;    1 :      872.425127;    2 :      0.701650;    3 :      7510.559836;    
4 :      2140.350707;    6 :      7547.977967;    7 :      2.010120;    
8 :      0.002467;    

Origin  6  
6 :      0.0;    1 :      5309.411293;    2 :      0.700473;    
3 :      361.771450;    4 :      0.594484;    5 :      2786.705057;    
7 :      4950.011414;    8 :      0.002468;    

Origin  7  
7 :      0.0;    1 :      10.433302;    
2 :      0.588736;    3 :      5295.625691;    4 :      0.000038;    
5 :      0.000038;    6 :      4462.231538;    8 :      0.002468;    


Origin  8  
8 :      0.0;    1 :      0.112867;    2 :      2194.732986;    3 :      10.224496;    
4 :      2019.415835;    5 :      0.000038;    6 :      0.228301;    
7 :      0.228473;    

