<NUMBER OF ZONES> 8
<TOTAL OD FLOW> 0.0
<END OF METADATA>


Origin  1  
1 :      0.0;    2 :      469.814113;    
3 :      673.788233;    4 :      216.960225;    5 :      419.865496;    
6 :      320.700947;    7 :      388.629215;    8 :      229.399498;    


Origin  2  
2 :      0.0;    1 :      497.168947;    3 :      370.060645;    4 :      262.686455;    
5 :      416.028957;    6 :      435.446049;    7 :      367.146256;    
8 :      280.070247;    

Origin  3  
3 :      0.0;    1 :      550.454014;    2 :      478.448460;    
4 :      337.589960;    5 :      467.262164;    6 :      492.255174;    
7 :      338.538460;    8 :      311.004483;    

Origin  4  
4 :      0.0;    1 :      213.637585;    
2 :      183.262800;    3 :      272.918354;    5 :      297.819900;    
6 :      325.919820;    7 :      270.609822;    8 :      207.332502;    


Origin  5  
5 :      0.0;    1 :      357.213346;    2 :      338.306269;    3 :      268.795793;    
4 :      315.592454;    6 :      364.244554;    7 :      486.898716;    
8 :      277.481654;    

Origin  6  
6 :      0.0;    1 :      376.317238;    2 :      400.463455;    
3 :      445.484309;    4 :      282.253211;    5 :      337.642750;    
7 :      271.068441;    8 :      267.996439;    

Origin  7  
7 :      0.0;    1 :      362.976601;    
2 :      339.479420;    3 :      334.435439;    4 :      332.730082;    
5 :      339.458229;    6 :      287.751312;    8 :      272.515276;    


Origin  8  
8 :      0.0;    1 :      238.570805;    2 :      204.437727;    3 :      337.005907;    
4 :      393.749843;    5 :      302.149252;    6 :      325.533254;    
7 :      389.838646;    

