<NUMBER OF ZONES> 8
<TOTAL OD FLOW> 0.0
<END OF METADATA>


Origin  1  
1 :      0.0;    2 :      498.632569;    
3 :      746.179963;    4 :      879.941894;    5 :      782.474734;    
6 :      710.756116;    7 :      473.328697;    8 :      261.250856;    


Origin  2  
2 :      0.0;    1 :      596.664621;    3 :      252.180862;    4 :      1855.393535;    
5 :      371.634104;    6 :      220.881555;    7 :      434.909462;    
8 :      230.110434;    

Origin  3  
3 :      0.0;    1 :      507.824928;    2 :      122.786970;    
4 :      946.485359;    5 :      1984.601803;    6 :      1135.614559;    
7 :      1594.726264;    8 :      329.295505;    

Origin  4  
4 :      0.0;    1 :      708.962274;    
2 :      1482.594194;    3 :      668.628215;    5 :      286.798191;    
6 :      252.153350;    7 :      482.865651;    8 :      1130.333252;    


Origin  5  
5 :      0.0;    1 :      580.378367;    2 :      228.270562;    3 :      1309.657347;    
4 :      706.591712;    6 :      666.465782;    7 :      277.640654;    
8 :      92.305175;    

Origin  6  
6 :      0.0;    1 :      479.076961;    2 :      121.347520;    
3 :      456.775071;    4 :      280.731297;    5 :      478.977625;    
7 :      2439.984815;    8 :      281.859858;    

Origin  7  
7 :      0.0;    1 :      556.618741;    
2 :      359.260598;    3 :      1071.618423;    4 :      829.456613;    
5 :      916.051824;    6 :      3091.293802;    8 :      166.861014;    


Origin  8  
8 :      0.0;    1 :      424.740323;    2 :      250.792049;    3 :      478.843750;    
4 :      1348.056338;    5 :      216.492485;    6 :      512.265165;    
7 :      318.664171;    

