<NUMBER OF ZONES> 8
<TOTAL OD FLOW> 0.0
<END OF METADATA>


Origin  1  
1 :      0.0;    2 :      361.698835;    
3 :      809.601317;    4 :      672.758251;    5 :      524.358253;    
6 :      619.557534;    7 :      522.490033;    8 :      360.972825;    


Origin  2  
2 :      0.0;    1 :      457.826818;    3 :      150.659818;    4 :      1475.380828;    
5 :      202.326552;    6 :      134.922722;    7 :      325.660859;    
8 :      263.427584;    

Origin  3  
3 :      0.0;    1 :      613.300423;    2 :      293.389858;    
4 :      719.848714;    5 :      784.149487;    6 :      771.919578;    
7 :      1436.507815;    8 :      518.364524;    

Origin  4  
4 :      0.0;    1 :      1119.378870;    
2 :      1659.444266;    3 :      892.565504;    5 :      617.284642;    
6 :      411.129622;    7 :      858.830739;    8 :      1767.770878;    


Origin  5  
5 :      0.0;    1 :      702.930849;    2 :      445.352215;    3 :      2211.021389;    
4 :      400.679341;    6 :      797.598286;    7 :      1780.573830;    
8 :      203.227285;    

Origin  6  
6 :      0.0;    1 :      540.074001;    2 :      180.298604;    
3 :      458.461259;    4 :      106.440540;    5 :      158.612972;    
7 :      3008.116713;    8 :      385.921070;    

Origin  7  
7 :      0.0;    1 :      703.259862;    
2 :      444.588517;    3 :      851.787740;    4 :      491.619010;    
5 :      283.505695;    6 :      2067.516942;    8 :      264.551368;    


Origin  8  
8 :      0.0;    1 :      315.318763;    2 :      263.397520;    3 :      327.101654;    
4 :      1472.726678;    5 :      173.210348;    6 :      284.020563;    
7 :      172.153775;    

