<NUMBER OF ZONES> 8
<TOTAL OD FLOW> 0.0
<END OF METADATA>


Origin  1  
1 :      0.0;    2 :      0.000000;    
3 :      15271.922207;    4 :      0.000000;    5 :      0.000000;    
6 :      3852.302278;    7 :      0.000000;    8 :      0.000000;    


Origin  2  
2 :      0.0;    1 :      4383.180690;    3 :      0.000000;    4 :      11518.456550;    
5 :      0.000000;    6 :      0.000000;    7 :      0.000000;    
8 :      0.000000;    

Origin  3  
3 :      0.0;    1 :      17315.883346;    2 :      5038.154623;    
4 :      0.000000;    5 :      0.000000;    6 :      5474.285074;    
7 :      17990.747711;    8 :      0.000000;    

Origin  4  
4 :      0.0;    1 :      0.000087;    
2 :      10476.845090;    3 :      0.000003;    5 :      5940.568524;    
6 :      3311.413713;    7 :      0.000012;    8 :      9570.917306;    


Origin  5  
5 :      0.0;    1 :      0.000000;    2 :      0.000000;    3 :      4771.275410;    
4 :      9070.360896;    6 :      5094.578598;    7 :      0.000868;    
8 :      298.055414;    

Origin  6  
6 :      0.0;    1 :      0.000000;    2 :      0.000000;    
3 :      8752.157732;    4 :      0.000000;    5 :      7387.071449;    
7 :      386.314915;    8 :      301.458461;    

Origin  7  
7 :      0.0;    1 :      0.000000;    
2 :      0.000000;    3 :      15125.147503;    4 :      0.000000;    
5 :      2141.750093;    6 :      0.000000;    8 :      8750.174867;    


Origin  8  
8 :      0.0;    1 :      0.000000;    2 :      0.000000;    3 :      0.000000;    
4 :      9565.954824;    5 :      0.000000;    6 :      0.000000;    
7 :      9649.314750;    

