<NUMBER OF ZONES> 8
<TOTAL OD FLOW> 0.0
<END OF METADATA>


Origin  1  
1 :      0.0;    2 :      0.000000;    
3 :      1688.184511;    4 :      0.000000;    5 :      522.568369;    
6 :      482.645788;    7 :      12.003581;    8 :      0.000000;    


Origin  2  
2 :      0.0;    1 :      912.102904;    3 :      0.000000;    4 :      1378.186603;    
5 :      0.000000;    6 :      0.000000;    7 :      0.000000;    
8 :      0.000000;    

Origin  3  
3 :      0.0;    1 :      649.859954;    2 :      0.008159;    
4 :      159.259560;    5 :      666.638012;    6 :      588.587130;    
7 :      7.422897;    8 :      196.908885;    

Origin  4  
4 :      0.0;    1 :      0.000018;    
2 :      1300.915755;    3 :      0.000001;    5 :      1.338458;    
6 :      741.484309;    7 :      0.074115;    8 :      1102.056217;    


Origin  5  
5 :      0.0;    1 :      0.000001;    2 :      0.000001;    3 :      0.000001;    
4 :      0.043479;    6 :      301.868990;    7 :      0.756481;    
8 :      1036.758869;    

Origin  6  
6 :      0.0;    1 :      219.478333;    2 :      0.005414;    
3 :      0.013463;    4 :      933.140489;    5 :      0.216527;    
7 :      816.450853;    8 :      15.113075;    

Origin  7  
7 :      0.0;    1 :      0.286276;    
2 :      0.008955;    3 :      372.651678;    4 :      94.040477;    
5 :      578.107944;    6 :      611.951211;    8 :      4.663232;    


Origin  8  
8 :      0.0;    1 :      139.169941;    2 :      1043.178191;    3 :      0.026391;    
4 :      1170.953116;    5 :      0.025453;    6 :      0.025826;    
7 :      0.028094;    

