<NUMBER OF ZONES> 8
<TOTAL OD FLOW> 0.0
<END OF METADATA>


Origin  1  
1 :      0.0;    2 :      0.000000;    
3 :      1793.141757;    4 :      0.000000;    5 :      0.076447;    
6 :      2929.177057;    7 :      57.046749;    8 :      0.000000;    


Origin  2  
2 :      0.0;    1 :      0.001828;    3 :      1130.304217;    4 :      2331.812223;    
5 :      0.121246;    6 :      47.464496;    7 :      36.840330;    
8 :      4.939729;    

Origin  3  
3 :      0.0;    1 :      193.523051;    2 :      253.734506;    
4 :      21.476136;    5 :      2017.787636;    6 :      11.247958;    
7 :      4999.999987;    8 :      9.307875;    

Origin  4  
4 :      0.0;    1 :      1098.984503;    
2 :      1278.744237;    3 :      433.081355;    5 :      1198.963983;    
6 :      92.477449;    7 :      0.004968;    8 :      1726.842652;    


Origin  5  
5 :      0.0;    1 :      83.523483;    2 :      48.864479;    3 :      49.280499;    
4 :      16.676002;    6 :      2942.428811;    7 :      0.004922;    
8 :      0.004925;    

Origin  6  
6 :      0.0;    1 :      0.000098;    2 :      0.000098;    
3 :      0.000098;    4 :      2725.247880;    5 :      42.702858;    
7 :      1584.658139;    8 :      821.055602;    

Origin  7  
7 :      0.0;    1 :      3041.724699;    
2 :      1212.639276;    3 :      18.217759;    4 :      572.201229;    
5 :      464.129315;    6 :      996.371712;    8 :      1195.943090;    


Origin  8  
8 :      0.0;    1 :      0.247283;    2 :      14.385320;    3 :      2736.914500;    
4 :      1957.719541;    5 :      0.437380;    6 :      0.472631;    
7 :      0.489529;    

