<NUMBER OF ZONES> 8
<TOTAL OD FLOW> 0.0
<END OF METADATA>


Origin  1  
1 :      0.0;    2 :      0.000000;    
3 :      6025.393760;    4 :      0.000000;    5 :      0.000002;    
6 :      1356.173252;    7 :      0.000004;    8 :      0.000000;    


Origin  2  
2 :      0.0;    1 :      2334.158861;    3 :      316.769715;    4 :      4473.253281;    
5 :      0.000002;    6 :      269.399944;    7 :      0.000004;    
8 :      0.000004;    

Origin  3  
3 :      0.0;    1 :      7359.678361;    2 :      2129.656665;    
4 :      0.000002;    5 :      0.000002;    6 :      2064.802296;    
7 :      7867.872287;    8 :      0.000004;    

Origin  4  
4 :      0.0;    1 :      0.000030;    
2 :      4688.438999;    3 :      0.000002;    5 :      4071.492566;    
6 :      32.804195;    7 :      30.785600;    8 :      4305.332146;    


Origin  5  
5 :      0.0;    1 :      0.000002;    2 :      0.000002;    3 :      0.000002;    
4 :      1857.320403;    6 :      3629.201215;    7 :      5170.060514;    
8 :      1838.787966;    

Origin  6  
6 :      0.0;    1 :      0.000092;    2 :      0.000092;    
3 :      3751.265976;    4 :      682.887216;    5 :      2509.668358;    
7 :      2738.042285;    8 :      824.720927;    

Origin  7  
7 :      0.0;    1 :      0.000004;    
2 :      0.000004;    3 :      8969.183877;    4 :      1433.249404;    
5 :      2.937874;    6 :      316.399577;    8 :      1404.746708;    


Origin  8  
8 :      0.0;    1 :      0.000004;    2 :      0.000004;    3 :      0.000004;    
4 :      3302.684612;    5 :      32.367995;    6 :      427.042820;    
7 :      3812.478660;    

