<NUMBER OF ZONES> 8
<TOTAL OD FLOW> 0.0
<END OF METADATA>


Origin  1  
1 :      0.0;    2 :      0.000000;    
3 :      9049.049300;    4 :      0.000000;    5 :      0.000001;    
6 :      2058.740892;    7 :      0.000001;    8 :      0.000000;    


Origin  2  
2 :      0.0;    1 :      2469.222140;    3 :      0.000000;    4 :      5265.199257;    
5 :      0.000000;    6 :      0.000000;    7 :      0.000000;    
8 :      0.000000;    

Origin  3  
3 :      0.0;    1 :      5494.952968;    2 :      1800.580690;    
4 :      0.000001;    5 :      0.000001;    6 :      2473.363446;    
7 :      10838.268789;    8 :      0.000001;    

Origin  4  
4 :      0.0;    1 :      0.000159;    
2 :      4901.110574;    3 :      0.000004;    5 :      5005.889329;    
6 :      70.300905;    7 :      75.822102;    8 :      4793.371468;    


Origin  5  
5 :      0.0;    1 :      0.000004;    2 :      0.000004;    3 :      0.000004;    
4 :      3506.395815;    6 :      5161.539009;    7 :      3747.733220;    
8 :      1375.245743;    

Origin  6  
6 :      0.0;    1 :      2471.615887;    2 :      1386.195867;    
3 :      0.000019;    4 :      808.735032;    5 :      3138.518105;    
7 :      3032.528826;    8 :      968.930990;    

Origin  7  
7 :      0.0;    1 :      0.000007;    
2 :      0.000008;    3 :      13502.995350;    4 :      37.419517;    
5 :      608.920152;    6 :      704.160143;    8 :      2367.538874;    


Origin  8  
8 :      0.0;    1 :      0.000009;    2 :      0.000011;    3 :      0.000007;    
4 :      3937.570025;    5 :      280.551410;    6 :      344.233466;    
7 :      3862.859979;    

