<NUMBER OF ZONES> 8
<TOTAL OD FLOW> 0.0
<END OF METADATA>


Origin  1  
1 :      0.0;    2 :      0.000000;    
3 :      14343.180391;    4 :      0.000000;    5 :      1504.263377;    
6 :      2892.604066;    7 :      0.000312;    8 :      0.000000;    


Origin  2  
2 :      0.0;    1 :      0.005873;    3 :      2373.922743;    4 :      10371.268853;    
5 :      656.845293;    6 :      1025.988583;    7 :      0.000312;    
8 :      0.000314;    

Origin  3  
3 :      0.0;    1 :      12080.421232;    2 :      7321.165493;    
4 :      1331.177430;    5 :      2073.157781;    6 :      3684.545828;    
7 :      21206.017287;    8 :      0.000312;    

Origin  4  
4 :      0.0;    1 :      5304.075234;    
2 :      5451.903830;    3 :      2527.105852;    5 :      3.203047;    
6 :      5827.683193;    7 :      0.000179;    8 :      8651.340494;    


Origin  5  
5 :      0.0;    1 :      1.311450;    2 :      1.307964;    3 :      1743.648858;    
4 :      30.905894;    6 :      1412.284054;    7 :      0.000177;    
8 :      0.000177;    

Origin  6  
6 :      0.0;    1 :      2723.728617;    2 :      2014.913574;    
3 :      0.000955;    4 :      5612.382085;    5 :      1384.784017;    
7 :      362.779284;    8 :      343.416225;    

Origin  7  
7 :      0.0;    1 :      0.000023;    
2 :      0.000023;    3 :      21454.971729;    4 :      1385.524682;    
5 :      1412.290948;    6 :      0.000011;    8 :      12620.625278;    


Origin  8  
8 :      0.0;    1 :      0.000023;    2 :      0.000023;    3 :      0.000023;    
4 :      8480.277680;    5 :      1415.138030;    6 :      0.000011;    
7 :      7823.421597;    

