<NUMBER OF ZONES> 34
<TOTAL OD FLOW> 0.0
<END OF METADATA>


Origin  1  
1 :      0.0;    2 :      63.802849;    
3 :      471.819480;    4 :      0.000000;    5 :      918.488499;    
6 :      0.000000;    7 :      0.000000;    8 :      0.000000;    
9 :      0.000000;    10 :      0.000000;    11 :      28.772957;    
12 :      31.681824;    13 :      0.000000;    14 :      29.681628;    
15 :      8.606275;    16 :      0.000000;    17 :      11.722161;    
18 :      20.428002;    19 :      23.394305;    20 :      0.000000;    
21 :      14.575279;    22 :      8.505481;    23 :      9.077854;    
24 :      4.484028;    25 :      4.452338;    26 :      1.875118;    
27 :      0.000000;    28 :      0.000000;    29 :      0.000000;    
30 :      2.023540;    31 :      1.880171;    32 :      1.936760;    
33 :      1.948398;    34 :      1.965538;    

Origin  2  
2 :      0.0;    1 :      44.610847;    
3 :      118.652210;    4 :      381.411877;    5 :      0.000000;    
6 :      167.195351;    7 :      0.000000;    8 :      104.283571;    
9 :      90.951624;    10 :      0.000000;    11 :      0.000000;    
12 :      0.000000;    13 :      0.000000;    14 :      0.000000;    
15 :      0.000000;    16 :      0.000000;    17 :      0.000000;    
18 :      0.000000;    19 :      0.000000;    20 :      0.000000;    
21 :      0.000000;    22 :      0.000000;    23 :      0.000000;    
24 :      0.000000;    25 :      0.000000;    26 :      0.000000;    
27 :      0.000000;    28 :      0.000000;    29 :      0.000000;    
30 :      0.000000;    31 :      0.000000;    32 :      0.000000;    
33 :      0.000000;    34 :      0.000000;    

Origin  3  
3 :      0.0;    1 :      67.639683;    
2 :      72.070490;    4 :      0.000000;    5 :      0.000000;    
6 :      0.000000;    7 :      134.776233;    8 :      0.000000;    
9 :      0.000000;    10 :      0.000000;    11 :      0.000000;    
12 :      0.000000;    13 :      0.000000;    14 :      0.000000;    
15 :      0.000000;    16 :      0.000000;    17 :      0.000000;    
18 :      0.000000;    19 :      0.000000;    20 :      0.000000;    
21 :      0.000000;    22 :      0.000000;    23 :      0.000000;    
24 :      0.000000;    25 :      0.000000;    26 :      0.000000;    
27 :      0.000000;    28 :      0.000000;    29 :      0.000000;    
30 :      0.000000;    31 :      0.000000;    32 :      0.000000;    
33 :      0.000000;    34 :      0.000000;    

Origin  4  
4 :      0.0;    1 :      56.935997;    
2 :      320.643351;    3 :      329.230351;    5 :      0.000000;    
6 :      957.700233;    7 :      0.000000;    8 :      136.941407;    
9 :      181.417875;    10 :      0.000000;    11 :      54.322955;    
12 :      64.777032;    13 :      0.000000;    14 :      60.697739;    
15 :      0.000000;    16 :      0.000000;    17 :      0.000000;    
18 :      30.947040;    19 :      32.851189;    20 :      0.000000;    
21 :      20.758405;    22 :      10.050710;    23 :      11.007453;    
24 :      4.830574;    25 :      4.854254;    26 :      0.000000;    
27 :      0.000000;    28 :      0.000000;    29 :      0.000000;    
30 :      0.000000;    31 :      0.000000;    32 :      0.000000;    
33 :      0.000000;    34 :      0.000000;    

Origin  5  
5 :      0.0;    1 :      724.768919;    
2 :      0.000000;    3 :      0.000000;    4 :      0.000000;    
6 :      0.000000;    7 :      0.000000;    8 :      0.000000;    
9 :      0.000000;    10 :      0.000000;    11 :      0.000000;    
12 :      0.000000;    13 :      0.000000;    14 :      0.000000;    
15 :      0.000000;    16 :      0.000000;    17 :      0.000000;    
18 :      0.000000;    19 :      0.000000;    20 :      0.000000;    
21 :      0.000000;    22 :      0.000000;    23 :      0.000000;    
24 :      0.000000;    25 :      0.000000;    26 :      0.000000;    
27 :      0.000000;    28 :      0.000000;    29 :      0.000000;    
30 :      0.000000;    31 :      0.000000;    32 :      0.000000;    
33 :      0.000000;    34 :      0.000000;    

Origin  6  
6 :      0.0;    1 :      4.448323;    
2 :      465.677208;    3 :      4.605681;    4 :      190.635770;    
5 :      0.000000;    7 :      0.000000;    8 :      4.525612;    
9 :      0.000000;    10 :      0.000000;    11 :      0.000000;    
12 :      21.565511;    13 :      0.000000;    14 :      20.731984;    
15 :      0.000000;    16 :      0.000000;    17 :      0.000000;    
18 :      15.865740;    19 :      17.178060;    20 :      0.000000;    
21 :      12.195396;    22 :      7.651356;    23 :      8.154251;    
24 :      4.284714;    25 :      4.263720;    26 :      0.000000;    
27 :      0.000000;    28 :      0.000000;    29 :      0.000000;    
30 :      0.000000;    31 :      0.000000;    32 :      0.000000;    
33 :      0.000000;    34 :      0.000000;    

Origin  7  
7 :      0.0;    1 :      35.255907;    
2 :      0.000000;    3 :      123.040888;    4 :      0.000000;    
5 :      0.000000;    6 :      0.000000;    8 :      0.000000;    
9 :      0.000000;    10 :      0.000000;    11 :      0.000000;    
12 :      0.000000;    13 :      0.000000;    14 :      0.000000;    
15 :      0.000000;    16 :      0.000000;    17 :      0.000000;    
18 :      0.000000;    19 :      0.000000;    20 :      0.000000;    
21 :      0.000000;    22 :      0.000000;    23 :      0.000000;    
24 :      0.000000;    25 :      0.000000;    26 :      0.000000;    
27 :      146.285293;    28 :      0.000000;    29 :      0.000000;    
30 :      0.000000;    31 :      0.000000;    32 :      0.000000;    
33 :      0.000000;    34 :      0.000000;    

Origin  8  
8 :      0.0;    1 :      0.000000;    
2 :      0.000000;    3 :      86.788090;    4 :      0.000000;    
5 :      0.000000;    6 :      0.000000;    7 :      0.000000;    
9 :      0.000000;    10 :      29.539054;    11 :      46.768410;    
12 :      51.400936;    13 :      0.000000;    14 :      54.525265;    
15 :      10.879468;    16 :      0.000000;    17 :      0.000000;    
18 :      30.048272;    19 :      32.076354;    20 :      0.000000;    
21 :      18.612489;    22 :      9.839607;    23 :      10.662938;    
24 :      4.778146;    25 :      4.783582;    26 :      1.950833;    
27 :      0.000000;    28 :      0.000000;    29 :      0.000000;    
30 :      2.034743;    31 :      2.019167;    32 :      2.007117;    
33 :      2.012480;    34 :      9.568677;    

Origin  9  
9 :      0.0;    1 :      0.000000;    
2 :      0.000000;    3 :      0.000000;    4 :      0.000000;    
5 :      0.000000;    6 :      260.414981;    7 :      0.000000;    
8 :      0.000000;    10 :      62.737552;    11 :      688.877784;    
12 :      0.000000;    13 :      0.000000;    14 :      0.000000;    
15 :      0.000000;    16 :      0.000000;    17 :      0.000000;    
18 :      0.000000;    19 :      0.000000;    20 :      0.000000;    
21 :      0.000000;    22 :      0.000000;    23 :      0.000000;    
24 :      0.000000;    25 :      0.000000;    26 :      0.000000;    
27 :      0.000000;    28 :      0.000000;    29 :      0.000000;    
30 :      0.000000;    31 :      0.000000;    32 :      0.000000;    
33 :      0.000000;    34 :      0.000000;    

Origin  10  
10 :      0.0;    1 :      3.252073;    
2 :      0.000000;    3 :      3.391481;    4 :      21.933356;    
5 :      0.000000;    6 :      0.000000;    7 :      0.000000;    
8 :      18.287751;    9 :      33.115467;    11 :      45.278440;    
12 :      35.129881;    13 :      0.000000;    14 :      33.350341;    
15 :      0.000000;    16 :      0.000000;    17 :      0.000000;    
18 :      22.259766;    19 :      0.000000;    20 :      0.000000;    
21 :      15.777547;    22 :      8.825479;    23 :      9.573856;    
24 :      4.553094;    25 :      4.532077;    26 :      6.749569;    
27 :      0.000000;    28 :      0.000000;    29 :      0.000000;    
30 :      8.792995;    31 :      7.339336;    32 :      7.642929;    
33 :      7.803461;    34 :      8.319704;    

Origin  11  
11 :      0.0;    1 :      0.600509;    
2 :      69.588982;    3 :      34.152265;    4 :      90.624224;    
5 :      0.000000;    6 :      82.947670;    7 :      0.000000;    
8 :      31.164585;    9 :      130.672428;    10 :      69.508539;    
12 :      165.778825;    13 :      0.000000;    14 :      127.215304;    
15 :      343.118218;    16 :      0.000000;    17 :      0.000000;    
18 :      43.112684;    19 :      0.000000;    20 :      0.000000;    
21 :      25.087764;    22 :      11.060213;    23 :      12.263162;    
24 :      5.013749;    25 :      5.135306;    26 :      2.470772;    
27 :      0.000000;    28 :      0.000000;    29 :      0.000000;    
30 :      2.681068;    31 :      2.552272;    32 :      2.594958;    
33 :      2.604952;    34 :      113.704639;    

Origin  12  
12 :      0.0;    1 :      0.600056;    
2 :      44.509766;    3 :      43.447910;    4 :      203.084968;    
5 :      0.000000;    6 :      212.162678;    7 :      0.000000;    
8 :      38.866391;    9 :      0.000000;    10 :      56.677571;    
11 :      366.769954;    13 :      0.000000;    14 :      689.866708;    
15 :      18.184193;    16 :      0.000000;    17 :      0.000000;    
18 :      59.846740;    19 :      173.300132;    20 :      0.000000;    
21 :      33.526332;    22 :      11.874589;    23 :      13.242918;    
24 :      5.197101;    25 :      5.198821;    26 :      2.031226;    
27 :      0.000000;    28 :      0.000000;    29 :      0.000000;    
30 :      2.129852;    31 :      2.105350;    32 :      2.091389;    
33 :      2.100453;    34 :      13.610696;    

Origin  13  
13 :      0.0;    1 :      0.000000;    
2 :      0.000000;    3 :      0.000000;    4 :      0.000000;    
5 :      0.000000;    6 :      0.000000;    7 :      0.000000;    
8 :      0.000000;    9 :      0.000000;    10 :      0.000000;    
11 :      0.000000;    12 :      0.000000;    14 :      0.000000;    
15 :      0.000000;    16 :      0.000000;    17 :      0.000000;    
18 :      0.000000;    19 :      204.469722;    20 :      0.000000;    
21 :      108.105939;    22 :      0.000000;    23 :      0.000000;    
24 :      271.588602;    25 :      208.158371;    26 :      27.616040;    
27 :      0.000000;    28 :      84.474335;    29 :      0.000000;    
30 :      142.622365;    31 :      49.334142;    32 :      42.324330;    
33 :      55.673431;    34 :      0.000000;    

Origin  14  
14 :      0.0;    1 :      0.593797;    
2 :      16.349612;    3 :      16.226002;    4 :      22.998423;    
5 :      0.000000;    6 :      23.463504;    7 :      0.000000;    
8 :      15.247569;    9 :      0.000000;    10 :      18.701883;    
11 :      23.837413;    12 :      26.127718;    13 :      0.000000;    
15 :      8.291720;    16 :      0.000000;    17 :      0.000000;    
18 :      65.639699;    19 :      0.000000;    20 :      0.000000;    
21 :      0.000000;    22 :      12.129825;    23 :      13.404984;    
24 :      0.000000;    25 :      0.000000;    26 :      0.000000;    
27 :      0.000000;    28 :      0.000000;    29 :      0.000000;    
30 :      2.006949;    31 :      1.932233;    32 :      1.949547;    
33 :      1.959887;    34 :      7.654282;    

Origin  15  
15 :      0.0;    1 :      0.000000;    
2 :      0.000000;    3 :      0.000000;    4 :      0.000000;    
5 :      0.000000;    6 :      0.000000;    7 :      0.000000;    
8 :      0.000000;    9 :      0.000000;    10 :      0.000000;    
11 :      0.000000;    12 :      0.000000;    13 :      658.050590;    
14 :      0.000000;    16 :      188.593258;    17 :      127.057060;    
18 :      0.000000;    19 :      0.000000;    20 :      74.977687;    
21 :      0.000000;    22 :      0.000000;    23 :      0.000000;    
24 :      0.000000;    25 :      0.000000;    26 :      10.748869;    
27 :      0.000000;    28 :      15.833958;    29 :      18.989162;    
30 :      15.424837;    31 :      12.182856;    32 :      12.688184;    
33 :      13.570124;    34 :      14.559331;    

Origin  16  
16 :      0.0;    1 :      0.000000;    
2 :      0.000000;    3 :      0.000000;    4 :      0.000000;    
5 :      0.000000;    6 :      0.000000;    7 :      0.000000;    
8 :      0.000000;    9 :      0.000000;    10 :      101.145694;    
11 :      0.000000;    12 :      0.000000;    13 :      0.000000;    
14 :      0.000000;    15 :      181.020679;    17 :      383.046581;    
18 :      0.000000;    19 :      107.989628;    20 :      121.255100;    
21 :      0.000000;    22 :      0.000000;    23 :      0.000000;    
24 :      0.000000;    25 :      0.000000;    26 :      0.000000;    
27 :      0.000000;    28 :      8.221421;    29 :      9.727774;    
30 :      8.500181;    31 :      7.353849;    32 :      7.295317;    
33 :      0.000000;    34 :      0.000000;    

Origin  17  
17 :      0.0;    1 :      76.614241;    
2 :      13.099290;    3 :      12.974707;    4 :      0.000000;    
5 :      0.000000;    6 :      0.000000;    7 :      14.326261;    
8 :      0.000000;    9 :      0.000000;    10 :      7.846065;    
11 :      0.000000;    12 :      0.000000;    13 :      0.000000;    
14 :      0.000000;    15 :      8.114739;    16 :      8.459220;    
18 :      0.000000;    19 :      127.932872;    20 :      162.812439;    
21 :      0.000000;    22 :      0.000000;    23 :      0.000000;    
24 :      0.000000;    25 :      0.000000;    26 :      0.000000;    
27 :      0.000000;    28 :      0.000000;    29 :      0.000000;    
30 :      0.000000;    31 :      0.000000;    32 :      0.000000;    
33 :      0.000000;    34 :      0.000000;    

Origin  18  
18 :      0.0;    1 :      0.590858;    
2 :      15.837108;    3 :      15.662349;    4 :      21.833490;    
5 :      0.000000;    6 :      22.518272;    7 :      0.000000;    
8 :      14.567283;    9 :      0.000000;    10 :      0.000000;    
11 :      0.000000;    12 :      24.745023;    13 :      0.000000;    
14 :      498.945235;    15 :      0.000000;    16 :      6.963260;    
17 :      46.213419;    19 :      146.899241;    20 :      0.000000;    
21 :      0.000000;    22 :      0.000000;    23 :      0.000000;    
24 :      0.000000;    25 :      0.000000;    26 :      104.125219;    
27 :      0.000000;    28 :      5.217101;    29 :      0.000000;    
30 :      5.028408;    31 :      4.613064;    32 :      4.787765;    
33 :      4.906394;    34 :      0.000000;    

Origin  19  
19 :      0.0;    1 :      0.496327;    
2 :      2.416144;    3 :      2.412158;    4 :      2.428495;    
5 :      0.000000;    6 :      0.000000;    7 :      0.000000;    
8 :      2.373871;    9 :      0.000000;    10 :      0.000000;    
11 :      0.000000;    12 :      2.437443;    13 :      275.055078;    
14 :      0.000000;    15 :      0.000000;    16 :      7.339751;    
17 :      69.179950;    18 :      0.000000;    20 :      0.000000;    
21 :      295.103713;    22 :      0.000000;    23 :      0.000000;    
24 :      0.000000;    25 :      20.649333;    26 :      347.505229;    
27 :      0.000000;    28 :      0.000000;    29 :      0.000000;    
30 :      0.000000;    31 :      0.000000;    32 :      0.000000;    
33 :      0.000000;    34 :      0.000000;    

Origin  20  
20 :      0.0;    1 :      0.000000;    
2 :      0.000000;    3 :      0.000000;    4 :      0.000000;    
5 :      0.000000;    6 :      0.000000;    7 :      0.000000;    
8 :      0.000000;    9 :      0.000000;    10 :      0.000000;    
11 :      0.000000;    12 :      0.000000;    13 :      0.000000;    
14 :      0.000000;    15 :      7.423145;    16 :      7.772933;    
17 :      85.288450;    18 :      0.000000;    19 :      0.000000;    
21 :      495.813688;    22 :      0.000000;    23 :      0.000000;    
24 :      0.000000;    25 :      0.000000;    26 :      0.000000;    
27 :      0.000000;    28 :      0.000000;    29 :      0.000000;    
30 :      0.000000;    31 :      0.000000;    32 :      0.000000;    
33 :      0.000000;    34 :      0.000000;    

Origin  21  
21 :      0.0;    1 :      0.544804;    
2 :      4.766722;    3 :      4.742102;    4 :      5.201306;    
5 :      0.000000;    6 :      5.264023;    7 :      0.000000;    
8 :      4.697908;    9 :      0.000000;    10 :      4.837528;    
11 :      5.288314;    12 :      5.401379;    13 :      103.157950;    
14 :      0.000000;    15 :      0.000000;    16 :      0.000000;    
17 :      0.000000;    18 :      0.000000;    19 :      149.787104;    
20 :      0.000000;    22 :      38.749915;    23 :      60.560394;    
24 :      6.464663;    25 :      6.447164;    26 :      465.407703;    
27 :      0.000000;    28 :      0.000000;    29 :      0.000000;    
30 :      0.000000;    31 :      0.000000;    32 :      0.000000;    
33 :      0.000000;    34 :      0.000000;    

Origin  22  
22 :      0.0;    1 :      0.571588;    
2 :      7.606273;    3 :      7.583014;    4 :      8.759400;    
5 :      0.000000;    6 :      8.940253;    7 :      0.000000;    
8 :      7.340665;    9 :      0.000000;    10 :      7.855097;    
11 :      8.940739;    12 :      9.258434;    13 :      0.000000;    
14 :      14.551527;    15 :      0.000000;    16 :      0.000000;    
17 :      0.000000;    18 :      0.000000;    19 :      0.000000;    
20 :      0.000000;    21 :      34.795661;    23 :      55.381488;    
24 :      5.497575;    25 :      5.458531;    26 :      32.645398;    
27 :      0.000000;    28 :      0.000000;    29 :      0.000000;    
30 :      0.000000;    31 :      0.000000;    32 :      0.000000;    
33 :      0.000000;    34 :      0.000000;    

Origin  23  
23 :      0.0;    1 :      0.579193;    
2 :      9.282696;    3 :      9.274950;    4 :      11.092619;    
5 :      0.000000;    6 :      11.349321;    7 :      0.000000;    
8 :      8.882810;    9 :      0.000000;    10 :      9.683341;    
11 :      11.333564;    12 :      11.832665;    13 :      0.000000;    
14 :      22.049089;    15 :      0.000000;    16 :      0.000000;    
17 :      0.000000;    18 :      0.000000;    19 :      0.000000;    
20 :      0.000000;    21 :      225.872637;    22 :      11.520449;    
24 :      388.124058;    25 :      69.876441;    26 :      31.992984;    
27 :      0.000000;    28 :      121.442833;    29 :      0.000000;    
30 :      0.000000;    31 :      0.000000;    32 :      0.000000;    
33 :      0.000000;    34 :      0.000000;    

Origin  24  
24 :      0.0;    1 :      0.544491;    
2 :      4.633824;    3 :      4.613355;    4 :      5.058002;    
5 :      0.000000;    6 :      5.102921;    7 :      0.000000;    
8 :      4.553321;    9 :      0.000000;    10 :      4.692664;    
11 :      5.190480;    12 :      5.196287;    13 :      0.000000;    
14 :      0.000000;    15 :      5.700315;    16 :      5.900486;    
17 :      19.065057;    18 :      0.000000;    19 :      0.000000;    
20 :      0.000000;    21 :      181.068397;    22 :      31.554972;    
23 :      88.038327;    25 :      84.285610;    26 :      34.681336;    
27 :      0.000000;    28 :      0.000000;    29 :      0.000000;    
30 :      0.000000;    31 :      0.000000;    32 :      0.000000;    
33 :      0.000000;    34 :      0.000000;    

Origin  25  
25 :      0.0;    1 :      0.546041;    
2 :      4.662076;    3 :      4.645671;    4 :      5.052007;    
5 :      0.000000;    6 :      5.109795;    7 :      0.000000;    
8 :      4.560125;    9 :      0.000000;    10 :      4.710273;    
11 :      5.093015;    12 :      5.207074;    13 :      0.000000;    
14 :      0.000000;    15 :      6.125598;    16 :      6.348829;    
17 :      24.483848;    18 :      0.000000;    19 :      15.686674;    
20 :      33.906862;    21 :      168.926402;    22 :      31.400682;    
23 :      63.973167;    24 :      234.005453;    26 :      56.171572;    
27 :      0.000000;    28 :      0.000000;    29 :      0.000000;    
30 :      0.000000;    31 :      0.000000;    32 :      0.000000;    
33 :      0.000000;    34 :      0.000000;    

Origin  26  
26 :      0.0;    1 :      0.529152;    
2 :      0.000000;    3 :      1.904684;    4 :      3.592571;    
5 :      0.000000;    6 :      0.000000;    7 :      0.000000;    
8 :      4.757789;    9 :      0.000000;    10 :      4.932186;    
11 :      0.959323;    12 :      5.467891;    13 :      9.224858;    
14 :      0.000000;    15 :      9.646155;    16 :      0.000000;    
17 :      41.941758;    18 :      0.000000;    19 :      21.310982;    
20 :      80.459532;    21 :      187.877796;    22 :      32.255685;    
23 :      16.518454;    24 :      19.659907;    25 :      21.569117;    
27 :      0.000000;    28 :      9.348803;    29 :      10.843154;    
30 :      10.099291;    31 :      8.493613;    32 :      8.546670;    
33 :      42.247234;    34 :      562.289671;    

Origin  27  
27 :      0.0;    1 :      0.000000;    
2 :      0.000000;    3 :      0.000000;    4 :      0.000000;    
5 :      0.000000;    6 :      0.000000;    7 :      136.826753;    
8 :      0.000000;    9 :      0.000000;    10 :      0.000000;    
11 :      0.000000;    12 :      0.000000;    13 :      0.000000;    
14 :      0.000000;    15 :      0.000000;    16 :      0.000000;    
17 :      0.000000;    18 :      0.000000;    19 :      0.000000;    
20 :      0.000000;    21 :      0.000000;    22 :      0.000000;    
23 :      0.000000;    24 :      0.000000;    25 :      0.000000;    
26 :      0.000000;    28 :      0.000000;    29 :      0.000000;    
30 :      0.000000;    31 :      0.000000;    32 :      0.000000;    
33 :      0.000000;    34 :      0.000000;    

Origin  28  
28 :      0.0;    1 :      0.000000;    
2 :      0.000000;    3 :      0.000000;    4 :      0.000000;    
5 :      0.000000;    6 :      0.000000;    7 :      0.000000;    
8 :      0.000000;    9 :      0.000000;    10 :      0.000000;    
11 :      0.000000;    12 :      0.000000;    13 :      27.201724;    
14 :      0.000000;    15 :      31.207997;    16 :      9.655160;    
17 :      0.000000;    18 :      0.000000;    19 :      0.000000;    
20 :      0.000000;    21 :      0.000000;    22 :      0.000000;    
23 :      157.185283;    24 :      0.000000;    25 :      0.000000;    
26 :      16.792220;    27 :      0.000000;    29 :      0.000000;    
30 :      34.470231;    31 :      23.341177;    32 :      21.093195;    
33 :      24.067310;    34 :      29.464662;    

Origin  29  
29 :      0.0;    1 :      3.121589;    
2 :      0.000000;    3 :      3.198683;    4 :      10.860629;    
5 :      0.000000;    6 :      0.000000;    7 :      0.000000;    
8 :      14.842005;    9 :      23.688343;    10 :      85.600503;    
11 :      29.697176;    12 :      24.790304;    13 :      0.000000;    
14 :      23.706615;    15 :      24.997455;    16 :      8.853860;    
17 :      0.000000;    18 :      17.462714;    19 :      0.000000;    
20 :      0.000000;    21 :      0.000000;    22 :      8.128430;    
23 :      8.669538;    24 :      0.000000;    25 :      0.000000;    
26 :      14.435015;    27 :      0.000000;    28 :      128.693118;    
30 :      23.668492;    31 :      18.936814;    32 :      18.025677;    
33 :      19.992593;    34 :      22.930630;    

Origin  30  
30 :      0.0;    1 :      0.584093;    
2 :      0.000000;    3 :      2.342811;    4 :      6.160351;    
5 :      0.000000;    6 :      0.000000;    7 :      0.000000;    
8 :      9.680315;    9 :      0.000000;    10 :      10.215358;    
11 :      1.070399;    12 :      13.726485;    13 :      117.686596;    
14 :      13.372854;    15 :      211.109733;    16 :      14.018481;    
17 :      0.000000;    18 :      0.000000;    19 :      0.000000;    
20 :      0.000000;    21 :      0.000000;    22 :      0.000000;    
23 :      0.000000;    24 :      0.000000;    25 :      0.000000;    
26 :      33.092327;    27 :      0.000000;    28 :      0.000000;    
29 :      0.000000;    31 :      83.196113;    32 :      58.257931;    
33 :      86.322694;    34 :      251.253473;    

Origin  31  
31 :      0.0;    1 :      0.550263;    
2 :      0.000000;    3 :      2.074518;    4 :      4.333691;    
5 :      0.000000;    6 :      0.000000;    7 :      0.000000;    
8 :      6.021380;    9 :      0.000000;    10 :      6.325123;    
11 :      1.015204;    12 :      7.195995;    13 :      15.216327;    
14 :      7.102218;    15 :      16.360618;    16 :      7.755535;    
17 :      0.000000;    18 :      0.000000;    19 :      0.000000;    
20 :      0.000000;    21 :      0.000000;    22 :      0.000000;    
23 :      0.000000;    24 :      0.000000;    25 :      0.000000;    
26 :      11.362737;    27 :      0.000000;    28 :      15.788832;    
29 :      20.615381;    30 :      17.726091;    32 :      13.458986;    
33 :      14.497015;    34 :      15.798465;    

Origin  32  
32 :      0.0;    1 :      0.546584;    
2 :      0.000000;    3 :      1.993297;    4 :      3.935759;    
5 :      0.000000;    6 :      0.000000;    7 :      0.000000;    
8 :      5.225736;    9 :      0.000000;    10 :      5.528133;    
11 :      0.978248;    12 :      6.111092;    13 :      10.979506;    
14 :      6.066674;    15 :      11.220804;    16 :      6.509325;    
17 :      0.000000;    18 :      0.000000;    19 :      0.000000;    
20 :      0.000000;    21 :      0.000000;    22 :      0.000000;    
23 :      0.000000;    24 :      0.000000;    25 :      0.000000;    
26 :      9.048537;    27 :      0.000000;    28 :      11.902776;    
29 :      14.019985;    30 :      12.142594;    31 :      10.181054;    
33 :      10.781305;    34 :      11.633072;    

Origin  33  
33 :      0.0;    1 :      0.541428;    
2 :      0.000000;    3 :      2.007721;    4 :      4.005885;    
5 :      0.000000;    6 :      0.000000;    7 :      0.000000;    
8 :      5.383699;    9 :      0.000000;    10 :      5.685916;    
11 :      0.979881;    12 :      6.328726;    13 :      11.912840;    
14 :      6.270266;    15 :      12.547047;    16 :      0.000000;    
17 :      0.000000;    18 :      0.000000;    19 :      0.000000;    
20 :      0.000000;    21 :      0.000000;    22 :      0.000000;    
23 :      0.000000;    24 :      0.000000;    25 :      0.000000;    
26 :      56.919569;    27 :      0.000000;    28 :      12.231377;    
29 :      14.879226;    30 :      13.339367;    31 :      10.724136;    
32 :      10.834004;    34 :      194.332498;    

Origin  34  
34 :      0.0;    1 :      0.580411;    
2 :      0.000000;    3 :      2.225744;    4 :      5.385822;    
5 :      0.000000;    6 :      0.000000;    7 :      0.000000;    
8 :      12.417476;    9 :      0.000000;    10 :      8.490513;    
11 :      3.624397;    12 :      57.006301;    13 :      0.000000;    
14 :      16.350051;    15 :      44.807886;    16 :      0.000000;    
17 :      0.000000;    18 :      0.000000;    19 :      0.000000;    
20 :      0.000000;    21 :      0.000000;    22 :      0.000000;    
23 :      0.000000;    24 :      0.000000;    25 :      0.000000;    
26 :      624.560928;    27 :      0.000000;    28 :      43.638067;    
29 :      141.860661;    30 :      57.598934;    31 :      28.856281;    
32 :      28.685999;    33 :      310.301041;    

