<NUMBER OF ZONES> 34
<TOTAL OD FLOW> 0.0
<END OF METADATA>


Origin  1  
1 :      0.0;    2 :      0.000000;    
3 :      0.000000;    4 :      0.000000;    5 :      0.000000;    
6 :      0.000000;    7 :      0.000000;    8 :      0.000000;    
9 :      0.000000;    10 :      0.000000;    11 :      0.000000;    
12 :      0.000000;    13 :      0.000000;    14 :      0.000000;    
15 :      0.000000;    16 :      0.000000;    17 :      0.000000;    
18 :      0.000000;    19 :      0.000000;    20 :      0.000000;    
21 :      0.000000;    22 :      0.000000;    23 :      0.000000;    
24 :      0.000000;    25 :      0.000000;    26 :      0.000000;    
27 :      0.000000;    28 :      0.000000;    29 :      0.000000;    
30 :      0.000000;    31 :      0.000000;    32 :      0.000000;    
33 :      0.000000;    34 :      0.000000;    

Origin  2  
2 :      0.0;    1 :      0.000000;    
3 :      0.000000;    4 :      0.000000;    5 :      0.000000;    
6 :      0.000000;    7 :      0.000000;    8 :      0.000000;    
9 :      792.788688;    10 :      0.000000;    11 :      0.000000;    
12 :      358.882776;    13 :      0.000000;    14 :      0.000000;    
15 :      0.000000;    16 :      0.000000;    17 :      0.000000;    
18 :      328.837605;    19 :      0.000000;    20 :      0.000000;    
21 :      0.000000;    22 :      0.000000;    23 :      0.000000;    
24 :      0.000000;    25 :      0.000000;    26 :      104.497528;    
27 :      0.000000;    28 :      0.000000;    29 :      0.000000;    
30 :      417.872102;    31 :      0.000000;    32 :      240.281683;    
33 :      0.000000;    34 :      0.000000;    

Origin  3  
3 :      0.0;    1 :      0.000000;    
2 :      0.000000;    4 :      0.000000;    5 :      0.000000;    
6 :      0.000000;    7 :      0.000000;    8 :      0.000000;    
9 :      0.000000;    10 :      0.000000;    11 :      0.000000;    
12 :      0.000000;    13 :      0.000000;    14 :      0.000000;    
15 :      0.000000;    16 :      0.000000;    17 :      0.000000;    
18 :      0.000000;    19 :      0.000000;    20 :      0.000000;    
21 :      0.000000;    22 :      0.000000;    23 :      0.000000;    
24 :      0.000000;    25 :      0.000000;    26 :      0.000000;    
27 :      0.000000;    28 :      0.000000;    29 :      0.000000;    
30 :      0.000000;    31 :      0.000000;    32 :      0.000000;    
33 :      0.000000;    34 :      0.000000;    

Origin  4  
4 :      0.0;    1 :      0.000000;    
2 :      0.000000;    3 :      0.000000;    5 :      0.000000;    
6 :      0.000000;    7 :      0.000000;    8 :      0.000000;    
9 :      0.000000;    10 :      0.000000;    11 :      0.000000;    
12 :      0.000000;    13 :      0.000000;    14 :      0.000000;    
15 :      0.000000;    16 :      0.000000;    17 :      0.000000;    
18 :      0.000000;    19 :      0.000000;    20 :      0.000000;    
21 :      0.000000;    22 :      0.000000;    23 :      0.000000;    
24 :      0.000000;    25 :      0.000000;    26 :      0.000000;    
27 :      0.000000;    28 :      0.000000;    29 :      0.000000;    
30 :      0.000000;    31 :      0.000000;    32 :      0.000000;    
33 :      0.000000;    34 :      0.000000;    

Origin  5  
5 :      0.0;    1 :      0.000000;    
2 :      0.000000;    3 :      0.000000;    4 :      0.000000;    
6 :      0.000000;    7 :      0.000000;    8 :      0.000000;    
9 :      0.000000;    10 :      0.000000;    11 :      0.000000;    
12 :      0.000000;    13 :      0.000000;    14 :      0.000000;    
15 :      0.000000;    16 :      0.000000;    17 :      0.000000;    
18 :      0.000000;    19 :      0.000000;    20 :      0.000000;    
21 :      0.000000;    22 :      0.000000;    23 :      0.000000;    
24 :      0.000000;    25 :      0.000000;    26 :      0.000000;    
27 :      0.000000;    28 :      0.000000;    29 :      0.000000;    
30 :      0.000000;    31 :      0.000000;    32 :      0.000000;    
33 :      0.000000;    34 :      0.000000;    

Origin  6  
6 :      0.0;    1 :      0.000000;    
2 :      0.000000;    3 :      0.000000;    4 :      0.000000;    
5 :      0.000000;    7 :      0.000000;    8 :      0.000000;    
9 :      0.000000;    10 :      0.000000;    11 :      0.000000;    
12 :      0.000000;    13 :      0.000000;    14 :      0.000000;    
15 :      0.000000;    16 :      0.000000;    17 :      0.000000;    
18 :      0.000000;    19 :      0.000000;    20 :      0.000000;    
21 :      0.000000;    22 :      0.000000;    23 :      0.000000;    
24 :      0.000000;    25 :      0.000000;    26 :      0.000000;    
27 :      0.000000;    28 :      0.000000;    29 :      0.000000;    
30 :      0.000000;    31 :      0.000000;    32 :      0.000000;    
33 :      0.000000;    34 :      0.000000;    

Origin  7  
7 :      0.0;    1 :      0.000000;    
2 :      0.000000;    3 :      0.000000;    4 :      0.000000;    
5 :      0.000000;    6 :      0.000000;    8 :      0.000000;    
9 :      0.000000;    10 :      0.000000;    11 :      0.000000;    
12 :      0.000000;    13 :      0.000000;    14 :      0.000000;    
15 :      0.000000;    16 :      0.000000;    17 :      0.000000;    
18 :      0.000000;    19 :      0.000000;    20 :      0.000000;    
21 :      0.000000;    22 :      0.000000;    23 :      0.000000;    
24 :      0.000000;    25 :      0.000000;    26 :      0.000000;    
27 :      0.000000;    28 :      0.000000;    29 :      0.000000;    
30 :      0.000000;    31 :      0.000000;    32 :      0.000000;    
33 :      0.000000;    34 :      0.000000;    

Origin  8  
8 :      0.0;    1 :      0.000000;    
2 :      0.000000;    3 :      0.000000;    4 :      0.000000;    
5 :      0.000000;    6 :      0.000000;    7 :      0.000000;    
9 :      0.000000;    10 :      0.000000;    11 :      0.000000;    
12 :      0.000000;    13 :      0.000000;    14 :      0.000000;    
15 :      0.000000;    16 :      0.000000;    17 :      0.000000;    
18 :      0.000000;    19 :      0.000000;    20 :      0.000000;    
21 :      0.000000;    22 :      0.000000;    23 :      0.000000;    
24 :      0.000000;    25 :      0.000000;    26 :      0.000000;    
27 :      0.000000;    28 :      0.000000;    29 :      0.000000;    
30 :      0.000000;    31 :      0.000000;    32 :      0.000000;    
33 :      0.000000;    34 :      0.000000;    

Origin  9  
9 :      0.0;    1 :      0.000000;    
2 :      475.986580;    3 :      0.000000;    4 :      0.000000;    
5 :      0.000000;    6 :      0.000000;    7 :      0.000000;    
8 :      0.000000;    10 :      0.000000;    11 :      0.000000;    
12 :      0.000000;    13 :      0.000000;    14 :      0.000000;    
15 :      0.000000;    16 :      0.000000;    17 :      0.000000;    
18 :      722.925660;    19 :      0.000000;    20 :      0.000000;    
21 :      0.000000;    22 :      0.000000;    23 :      0.000000;    
24 :      0.000000;    25 :      0.000000;    26 :      0.000000;    
27 :      0.000000;    28 :      0.000000;    29 :      0.000000;    
30 :      0.000000;    31 :      0.000000;    32 :      0.000000;    
33 :      0.000000;    34 :      0.000000;    

Origin  10  
10 :      0.0;    1 :      0.000000;    
2 :      0.000000;    3 :      0.000000;    4 :      0.000000;    
5 :      0.000000;    6 :      0.000000;    7 :      0.000000;    
8 :      0.000000;    9 :      0.000000;    11 :      0.000000;    
12 :      0.000000;    13 :      0.000000;    14 :      0.000000;    
15 :      0.000000;    16 :      0.000000;    17 :      0.000000;    
18 :      0.000000;    19 :      0.000000;    20 :      0.000000;    
21 :      0.000000;    22 :      0.000000;    23 :      0.000000;    
24 :      0.000000;    25 :      0.000000;    26 :      0.000000;    
27 :      0.000000;    28 :      0.000000;    29 :      0.000000;    
30 :      0.000000;    31 :      0.000000;    32 :      0.000000;    
33 :      0.000000;    34 :      0.000000;    

Origin  11  
11 :      0.0;    1 :      0.000000;    
2 :      0.000000;    3 :      0.000000;    4 :      0.000000;    
5 :      0.000000;    6 :      0.000000;    7 :      0.000000;    
8 :      0.000000;    9 :      0.000000;    10 :      0.000000;    
12 :      0.000000;    13 :      0.000000;    14 :      0.000000;    
15 :      0.000000;    16 :      0.000000;    17 :      0.000000;    
18 :      0.000000;    19 :      0.000000;    20 :      0.000000;    
21 :      0.000000;    22 :      0.000000;    23 :      0.000000;    
24 :      0.000000;    25 :      0.000000;    26 :      0.000000;    
27 :      0.000000;    28 :      0.000000;    29 :      0.000000;    
30 :      0.000000;    31 :      0.000000;    32 :      0.000000;    
33 :      0.000000;    34 :      0.000000;    

Origin  12  
12 :      0.0;    1 :      0.000000;    
2 :      95.557191;    3 :      0.000000;    4 :      0.000000;    
5 :      0.000000;    6 :      0.000000;    7 :      0.000000;    
8 :      0.000000;    9 :      333.869654;    10 :      0.000000;    
11 :      0.000000;    13 :      679.799530;    14 :      0.000000;    
15 :      165.809426;    16 :      0.000000;    17 :      0.000000;    
18 :      1253.110654;    19 :      0.000000;    20 :      226.312642;    
21 :      0.000000;    22 :      0.000000;    23 :      0.000000;    
24 :      0.000000;    25 :      0.000000;    26 :      35.934568;    
27 :      0.000000;    28 :      0.000000;    29 :      0.000000;    
30 :      91.105846;    31 :      0.000000;    32 :      108.651410;    
33 :      0.000000;    34 :      0.000000;    

Origin  13  
13 :      0.0;    1 :      0.000000;    
2 :      0.000000;    3 :      0.000000;    4 :      0.000000;    
5 :      0.000000;    6 :      0.000000;    7 :      0.000000;    
8 :      0.000000;    9 :      114.594851;    10 :      0.000000;    
11 :      0.000000;    12 :      0.000000;    14 :      0.000000;    
15 :      1088.586736;    16 :      0.000000;    17 :      0.000000;    
18 :      415.233365;    19 :      0.000000;    20 :      4.360812;    
21 :      0.000000;    22 :      0.000000;    23 :      0.000000;    
24 :      0.000000;    25 :      0.000000;    26 :      260.204534;    
27 :      0.000000;    28 :      0.000000;    29 :      0.000000;    
30 :      59.677058;    31 :      0.000000;    32 :      0.000000;    
33 :      0.000000;    34 :      0.000000;    

Origin  14  
14 :      0.0;    1 :      0.000000;    
2 :      0.000000;    3 :      0.000000;    4 :      0.000000;    
5 :      0.000000;    6 :      0.000000;    7 :      0.000000;    
8 :      0.000000;    9 :      0.000000;    10 :      0.000000;    
11 :      0.000000;    12 :      0.000000;    13 :      0.000000;    
15 :      0.000000;    16 :      0.000000;    17 :      0.000000;    
18 :      0.000000;    19 :      0.000000;    20 :      0.000000;    
21 :      0.000000;    22 :      0.000000;    23 :      0.000000;    
24 :      0.000000;    25 :      0.000000;    26 :      0.000000;    
27 :      0.000000;    28 :      0.000000;    29 :      0.000000;    
30 :      0.000000;    31 :      0.000000;    32 :      0.000000;    
33 :      0.000000;    34 :      0.000000;    

Origin  15  
15 :      0.0;    1 :      0.000000;    
2 :      0.000000;    3 :      0.000000;    4 :      0.000000;    
5 :      0.000000;    6 :      0.000000;    7 :      0.000000;    
8 :      0.000000;    9 :      0.000000;    10 :      0.000000;    
11 :      0.000000;    12 :      202.326668;    13 :      1009.848982;    
14 :      0.000000;    16 :      0.000000;    17 :      0.000000;    
18 :      424.037239;    19 :      0.000000;    20 :      856.058870;    
21 :      0.000000;    22 :      0.000000;    23 :      0.000000;    
24 :      0.000000;    25 :      0.000000;    26 :      0.000000;    
27 :      0.000000;    28 :      0.000000;    29 :      0.000000;    
30 :      91.505680;    31 :      0.000000;    32 :      0.000000;    
33 :      0.000000;    34 :      0.000000;    

Origin  16  
16 :      0.0;    1 :      0.000000;    
2 :      0.000000;    3 :      0.000000;    4 :      0.000000;    
5 :      0.000000;    6 :      0.000000;    7 :      0.000000;    
8 :      0.000000;    9 :      0.000000;    10 :      0.000000;    
11 :      0.000000;    12 :      0.000000;    13 :      0.000000;    
14 :      0.000000;    15 :      0.000000;    17 :      0.000000;    
18 :      0.000000;    19 :      0.000000;    20 :      0.000000;    
21 :      0.000000;    22 :      0.000000;    23 :      0.000000;    
24 :      0.000000;    25 :      0.000000;    26 :      0.000000;    
27 :      0.000000;    28 :      0.000000;    29 :      0.000000;    
30 :      0.000000;    31 :      0.000000;    32 :      0.000000;    
33 :      0.000000;    34 :      0.000000;    

Origin  17  
17 :      0.0;    1 :      0.000000;    
2 :      0.000000;    3 :      0.000000;    4 :      0.000000;    
5 :      0.000000;    6 :      0.000000;    7 :      0.000000;    
8 :      0.000000;    9 :      0.000000;    10 :      0.000000;    
11 :      0.000000;    12 :      0.000000;    13 :      0.000000;    
14 :      0.000000;    15 :      0.000000;    16 :      0.000000;    
18 :      0.000000;    19 :      0.000000;    20 :      0.000000;    
21 :      0.000000;    22 :      0.000000;    23 :      0.000000;    
24 :      0.000000;    25 :      0.000000;    26 :      0.000000;    
27 :      0.000000;    28 :      0.000000;    29 :      0.000000;    
30 :      0.000000;    31 :      0.000000;    32 :      0.000000;    
33 :      0.000000;    34 :      0.000000;    

Origin  18  
18 :      0.0;    1 :      0.000000;    
2 :      161.098829;    3 :      0.000000;    4 :      0.000000;    
5 :      0.000000;    6 :      0.000000;    7 :      0.000000;    
8 :      0.000000;    9 :      836.035071;    10 :      0.000000;    
11 :      0.000000;    12 :      1381.754955;    13 :      43.298024;    
14 :      0.000000;    15 :      1045.492235;    16 :      0.000000;    
17 :      0.000000;    19 :      0.000000;    20 :      0.000000;    
21 :      0.000000;    22 :      0.000000;    23 :      0.000000;    
24 :      0.000000;    25 :      0.000000;    26 :      294.085319;    
27 :      0.000000;    28 :      0.000000;    29 :      0.000000;    
30 :      302.084904;    31 :      0.000000;    32 :      0.000000;    
33 :      0.000000;    34 :      0.000000;    

Origin  19  
19 :      0.0;    1 :      0.000000;    
2 :      0.000000;    3 :      0.000000;    4 :      0.000000;    
5 :      0.000000;    6 :      0.000000;    7 :      0.000000;    
8 :      0.000000;    9 :      0.000000;    10 :      0.000000;    
11 :      0.000000;    12 :      0.000000;    13 :      0.000000;    
14 :      0.000000;    15 :      0.000000;    16 :      0.000000;    
17 :      0.000000;    18 :      0.000000;    20 :      0.000000;    
21 :      0.000000;    22 :      0.000000;    23 :      0.000000;    
24 :      0.000000;    25 :      0.000000;    26 :      0.000000;    
27 :      0.000000;    28 :      0.000000;    29 :      0.000000;    
30 :      0.000000;    31 :      0.000000;    32 :      0.000000;    
33 :      0.000000;    34 :      0.000000;    

Origin  20  
20 :      0.0;    1 :      0.000000;    
2 :      0.000000;    3 :      0.000000;    4 :      0.000000;    
5 :      0.000000;    6 :      0.000000;    7 :      0.000000;    
8 :      0.000000;    9 :      59.926182;    10 :      0.000000;    
11 :      0.000000;    12 :      440.356684;    13 :      0.000000;    
14 :      0.000000;    15 :      622.742056;    16 :      0.000000;    
17 :      0.000000;    18 :      0.000000;    19 :      0.000000;    
21 :      0.000000;    22 :      0.000000;    23 :      0.000000;    
24 :      0.000000;    25 :      0.000000;    26 :      913.521315;    
27 :      0.000000;    28 :      0.000000;    29 :      0.000000;    
30 :      124.653165;    31 :      0.000000;    32 :      19.820859;    
33 :      0.000000;    34 :      0.000000;    

Origin  21  
21 :      0.0;    1 :      0.000000;    
2 :      0.000000;    3 :      0.000000;    4 :      0.000000;    
5 :      0.000000;    6 :      0.000000;    7 :      0.000000;    
8 :      0.000000;    9 :      0.000000;    10 :      0.000000;    
11 :      0.000000;    12 :      0.000000;    13 :      0.000000;    
14 :      0.000000;    15 :      0.000000;    16 :      0.000000;    
17 :      0.000000;    18 :      0.000000;    19 :      0.000000;    
20 :      0.000000;    22 :      0.000000;    23 :      0.000000;    
24 :      0.000000;    25 :      0.000000;    26 :      0.000000;    
27 :      0.000000;    28 :      0.000000;    29 :      0.000000;    
30 :      0.000000;    31 :      0.000000;    32 :      0.000000;    
33 :      0.000000;    34 :      0.000000;    

Origin  22  
22 :      0.0;    1 :      0.000000;    
2 :      0.000000;    3 :      0.000000;    4 :      0.000000;    
5 :      0.000000;    6 :      0.000000;    7 :      0.000000;    
8 :      0.000000;    9 :      0.000000;    10 :      0.000000;    
11 :      0.000000;    12 :      0.000000;    13 :      0.000000;    
14 :      0.000000;    15 :      0.000000;    16 :      0.000000;    
17 :      0.000000;    18 :      0.000000;    19 :      0.000000;    
20 :      0.000000;    21 :      0.000000;    23 :      0.000000;    
24 :      0.000000;    25 :      0.000000;    26 :      0.000000;    
27 :      0.000000;    28 :      0.000000;    29 :      0.000000;    
30 :      0.000000;    31 :      0.000000;    32 :      0.000000;    
33 :      0.000000;    34 :      0.000000;    

Origin  23  
23 :      0.0;    1 :      0.000000;    
2 :      0.000000;    3 :      0.000000;    4 :      0.000000;    
5 :      0.000000;    6 :      0.000000;    7 :      0.000000;    
8 :      0.000000;    9 :      0.000000;    10 :      0.000000;    
11 :      0.000000;    12 :      0.000000;    13 :      0.000000;    
14 :      0.000000;    15 :      0.000000;    16 :      0.000000;    
17 :      0.000000;    18 :      0.000000;    19 :      0.000000;    
20 :      0.000000;    21 :      0.000000;    22 :      0.000000;    
24 :      0.000000;    25 :      0.000000;    26 :      0.000000;    
27 :      0.000000;    28 :      0.000000;    29 :      0.000000;    
30 :      0.000000;    31 :      0.000000;    32 :      0.000000;    
33 :      0.000000;    34 :      0.000000;    

Origin  24  
24 :      0.0;    1 :      0.000000;    
2 :      0.000000;    3 :      0.000000;    4 :      0.000000;    
5 :      0.000000;    6 :      0.000000;    7 :      0.000000;    
8 :      0.000000;    9 :      0.000000;    10 :      0.000000;    
11 :      0.000000;    12 :      0.000000;    13 :      0.000000;    
14 :      0.000000;    15 :      0.000000;    16 :      0.000000;    
17 :      0.000000;    18 :      0.000000;    19 :      0.000000;    
20 :      0.000000;    21 :      0.000000;    22 :      0.000000;    
23 :      0.000000;    25 :      0.000000;    26 :      0.000000;    
27 :      0.000000;    28 :      0.000000;    29 :      0.000000;    
30 :      0.000000;    31 :      0.000000;    32 :      0.000000;    
33 :      0.000000;    34 :      0.000000;    

Origin  25  
25 :      0.0;    1 :      0.000000;    
2 :      0.000000;    3 :      0.000000;    4 :      0.000000;    
5 :      0.000000;    6 :      0.000000;    7 :      0.000000;    
8 :      0.000000;    9 :      0.000000;    10 :      0.000000;    
11 :      0.000000;    12 :      0.000000;    13 :      0.000000;    
14 :      0.000000;    15 :      0.000000;    16 :      0.000000;    
17 :      0.000000;    18 :      0.000000;    19 :      0.000000;    
20 :      0.000000;    21 :      0.000000;    22 :      0.000000;    
23 :      0.000000;    24 :      0.000000;    26 :      0.000000;    
27 :      0.000000;    28 :      0.000000;    29 :      0.000000;    
30 :      0.000000;    31 :      0.000000;    32 :      0.000000;    
33 :      0.000000;    34 :      0.000000;    

Origin  26  
26 :      0.0;    1 :      0.000000;    
2 :      27.197286;    3 :      0.000000;    4 :      0.000000;    
5 :      0.000000;    6 :      0.000000;    7 :      0.000000;    
8 :      0.000000;    9 :      0.000000;    10 :      0.000000;    
11 :      0.000000;    12 :      0.000000;    13 :      0.000000;    
14 :      0.000000;    15 :      0.000000;    16 :      0.000000;    
17 :      0.000000;    18 :      726.363213;    19 :      0.000000;    
20 :      1243.428937;    21 :      0.000000;    22 :      0.000000;    
23 :      0.000000;    24 :      0.000000;    25 :      0.000000;    
27 :      0.000000;    28 :      0.000000;    29 :      0.000000;    
30 :      888.037007;    31 :      0.000000;    32 :      0.000000;    
33 :      0.000000;    34 :      0.000000;    

Origin  27  
27 :      0.0;    1 :      0.000000;    
2 :      0.000000;    3 :      0.000000;    4 :      0.000000;    
5 :      0.000000;    6 :      0.000000;    7 :      0.000000;    
8 :      0.000000;    9 :      0.000000;    10 :      0.000000;    
11 :      0.000000;    12 :      0.000000;    13 :      0.000000;    
14 :      0.000000;    15 :      0.000000;    16 :      0.000000;    
17 :      0.000000;    18 :      0.000000;    19 :      0.000000;    
20 :      0.000000;    21 :      0.000000;    22 :      0.000000;    
23 :      0.000000;    24 :      0.000000;    25 :      0.000000;    
26 :      0.000000;    28 :      0.000000;    29 :      0.000000;    
30 :      0.000000;    31 :      0.000000;    32 :      0.000000;    
33 :      0.000000;    34 :      0.000000;    

Origin  28  
28 :      0.0;    1 :      0.000000;    
2 :      0.000000;    3 :      0.000000;    4 :      0.000000;    
5 :      0.000000;    6 :      0.000000;    7 :      0.000000;    
8 :      0.000000;    9 :      0.000000;    10 :      0.000000;    
11 :      0.000000;    12 :      0.000000;    13 :      0.000000;    
14 :      0.000000;    15 :      0.000000;    16 :      0.000000;    
17 :      0.000000;    18 :      0.000000;    19 :      0.000000;    
20 :      0.000000;    21 :      0.000000;    22 :      0.000000;    
23 :      0.000000;    24 :      0.000000;    25 :      0.000000;    
26 :      0.000000;    27 :      0.000000;    29 :      0.000000;    
30 :      0.000000;    31 :      0.000000;    32 :      0.000000;    
33 :      0.000000;    34 :      0.000000;    

Origin  29  
29 :      0.0;    1 :      0.000000;    
2 :      0.000000;    3 :      0.000000;    4 :      0.000000;    
5 :      0.000000;    6 :      0.000000;    7 :      0.000000;    
8 :      0.000000;    9 :      0.000000;    10 :      0.000000;    
11 :      0.000000;    12 :      0.000000;    13 :      0.000000;    
14 :      0.000000;    15 :      0.000000;    16 :      0.000000;    
17 :      0.000000;    18 :      0.000000;    19 :      0.000000;    
20 :      0.000000;    21 :      0.000000;    22 :      0.000000;    
23 :      0.000000;    24 :      0.000000;    25 :      0.000000;    
26 :      0.000000;    27 :      0.000000;    28 :      0.000000;    
30 :      0.000000;    31 :      0.000000;    32 :      0.000000;    
33 :      0.000000;    34 :      0.000000;    

Origin  30  
30 :      0.0;    1 :      0.000000;    
2 :      583.526381;    3 :      0.000000;    4 :      0.000000;    
5 :      0.000000;    6 :      0.000000;    7 :      0.000000;    
8 :      0.000000;    9 :      36.791626;    10 :      0.000000;    
11 :      0.000000;    12 :      91.032946;    13 :      446.146903;    
14 :      0.000000;    15 :      100.011586;    16 :      0.000000;    
17 :      0.000000;    18 :      119.326653;    19 :      0.000000;    
20 :      372.724894;    21 :      0.000000;    22 :      0.000000;    
23 :      0.000000;    24 :      0.000000;    25 :      0.000000;    
26 :      799.465108;    27 :      0.000000;    28 :      0.000000;    
29 :      0.000000;    31 :      0.000000;    32 :      243.293277;    
33 :      0.000000;    34 :      0.000000;    

Origin  31  
31 :      0.0;    1 :      0.000000;    
2 :      0.000000;    3 :      0.000000;    4 :      0.000000;    
5 :      0.000000;    6 :      0.000000;    7 :      0.000000;    
8 :      0.000000;    9 :      0.000000;    10 :      0.000000;    
11 :      0.000000;    12 :      0.000000;    13 :      0.000000;    
14 :      0.000000;    15 :      0.000000;    16 :      0.000000;    
17 :      0.000000;    18 :      0.000000;    19 :      0.000000;    
20 :      0.000000;    21 :      0.000000;    22 :      0.000000;    
23 :      0.000000;    24 :      0.000000;    25 :      0.000000;    
26 :      0.000000;    27 :      0.000000;    28 :      0.000000;    
29 :      0.000000;    30 :      0.000000;    32 :      0.000000;    
33 :      0.000000;    34 :      0.000000;    

Origin  32  
32 :      0.0;    1 :      0.000000;    
2 :      151.888938;    3 :      0.000000;    4 :      0.000000;    
5 :      0.000000;    6 :      0.000000;    7 :      0.000000;    
8 :      0.000000;    9 :      0.000000;    10 :      0.000000;    
11 :      0.000000;    12 :      32.440995;    13 :      19.731825;    
14 :      0.000000;    15 :      41.422508;    16 :      0.000000;    
17 :      0.000000;    18 :      0.000000;    19 :      0.000000;    
20 :      18.196572;    21 :      0.000000;    22 :      0.000000;    
23 :      0.000000;    24 :      0.000000;    25 :      0.000000;    
26 :      11.271342;    27 :      0.000000;    28 :      0.000000;    
29 :      0.000000;    30 :      337.095071;    31 :      0.000000;    
33 :      0.000000;    34 :      0.000000;    

Origin  33  
33 :      0.0;    1 :      0.000000;    
2 :      0.000000;    3 :      0.000000;    4 :      0.000000;    
5 :      0.000000;    6 :      0.000000;    7 :      0.000000;    
8 :      0.000000;    9 :      0.000000;    10 :      0.000000;    
11 :      0.000000;    12 :      0.000000;    13 :      0.000000;    
14 :      0.000000;    15 :      0.000000;    16 :      0.000000;    
17 :      0.000000;    18 :      0.000000;    19 :      0.000000;    
20 :      0.000000;    21 :      0.000000;    22 :      0.000000;    
23 :      0.000000;    24 :      0.000000;    25 :      0.000000;    
26 :      0.000000;    27 :      0.000000;    28 :      0.000000;    
29 :      0.000000;    30 :      0.000000;    31 :      0.000000;    
32 :      0.000000;    34 :      0.000000;    

Origin  34  
34 :      0.0;    1 :      0.000000;    
2 :      0.000000;    3 :      0.000000;    4 :      0.000000;    
5 :      0.000000;    6 :      0.000000;    7 :      0.000000;    
8 :      0.000000;    9 :      0.000000;    10 :      0.000000;    
11 :      0.000000;    12 :      0.000000;    13 :      0.000000;    
14 :      0.000000;    15 :      0.000000;    16 :      0.000000;    
17 :      0.000000;    18 :      0.000000;    19 :      0.000000;    
20 :      0.000000;    21 :      0.000000;    22 :      0.000000;    
23 :      0.000000;    24 :      0.000000;    25 :      0.000000;    
26 :      0.000000;    27 :      0.000000;    28 :      0.000000;    
29 :      0.000000;    30 :      0.000000;    31 :      0.000000;    
32 :      0.000000;    33 :      0.000000;    

