<NUMBER OF ZONES> 26
<TOTAL OD FLOW> 10754.870000000004000
<END OF METADATA> 


Origin 1 
2 	: 	22.590000; 	3 	: 	18.320000; 	4 	: 	21.820000; 	5 	: 	15.220000; 	6 	: 	3.730000; 	
7 	: 	0.100000; 	8 	: 	0.310000; 	9 	: 	1.220000; 	10 	: 	0.520000; 	11 	: 	0.210000; 	
12 	: 	1.520000; 	13 	: 	11.190000; 	14 	: 	19.890000; 	15 	: 	19.450000; 	16 	: 	11.080000; 	
17 	: 	19.530000; 	18 	: 	0.460000; 	19 	: 	0.130000; 	20 	: 	10.200000; 	21 	: 	12.930000; 	
22 	: 	12.040000; 	23 	: 	10.910000; 	24 	: 	0.030000; 	25 	: 	0.490000; 	26 	: 	3.680000; 	

Origin 2 
1 	: 	22.500000; 	3 	: 	41.820000; 	4 	: 	86.270000; 	5 	: 	43.270000; 	6 	: 	38.190000; 	
7 	: 	3.040000; 	8 	: 	2.140000; 	9 	: 	4.800000; 	10 	: 	4.470000; 	11 	: 	1.170000; 	
12 	: 	9.070000; 	13 	: 	17.680000; 	14 	: 	47.420000; 	15 	: 	45.270000; 	16 	: 	32.580000; 	
17 	: 	39.950000; 	18 	: 	13.960000; 	19 	: 	1.470000; 	20 	: 	65.250000; 	21 	: 	24.390000; 	
22 	: 	46.360000; 	23 	: 	27.870000; 	24 	: 	0.230000; 	25 	: 	15.000000; 	26 	: 	10.550000; 	

Origin 3 
1 	: 	18.250000; 	2 	: 	42.000000; 	4 	: 	68.800000; 	5 	: 	41.650000; 	6 	: 	28.100000; 	
7 	: 	2.710000; 	8 	: 	2.090000; 	9 	: 	5.250000; 	10 	: 	4.210000; 	11 	: 	1.310000; 	
12 	: 	10.470000; 	13 	: 	21.000000; 	14 	: 	54.280000; 	15 	: 	40.590000; 	16 	: 	24.210000; 	
17 	: 	46.220000; 	18 	: 	11.750000; 	19 	: 	1.290000; 	20 	: 	67.930000; 	21 	: 	23.910000; 	
22 	: 	40.920000; 	23 	: 	29.820000; 	24 	: 	0.210000; 	25 	: 	12.710000; 	26 	: 	11.040000; 	

Origin 4 
1 	: 	21.730000; 	2 	: 	86.270000; 	3 	: 	68.570000; 	5 	: 	68.440000; 	6 	: 	41.000000; 	
7 	: 	4.510000; 	8 	: 	3.050000; 	9 	: 	7.390000; 	10 	: 	5.710000; 	11 	: 	2.050000; 	
12 	: 	15.090000; 	13 	: 	34.580000; 	14 	: 	67.270000; 	15 	: 	82.070000; 	16 	: 	45.050000; 	
17 	: 	75.290000; 	18 	: 	19.360000; 	19 	: 	1.980000; 	20 	: 	122.380000; 	21 	: 	37.180000; 	
22 	: 	47.540000; 	23 	: 	45.190000; 	24 	: 	0.280000; 	25 	: 	18.680000; 	26 	: 	19.590000; 	

Origin 5 
1 	: 	15.180000; 	2 	: 	43.690000; 	3 	: 	41.760000; 	4 	: 	68.930000; 	6 	: 	25.590000; 	
7 	: 	3.210000; 	8 	: 	2.390000; 	9 	: 	5.230000; 	10 	: 	4.720000; 	11 	: 	1.580000; 	
12 	: 	13.380000; 	13 	: 	16.790000; 	14 	: 	34.290000; 	15 	: 	29.730000; 	16 	: 	20.170000; 	
17 	: 	28.490000; 	18 	: 	13.320000; 	19 	: 	1.170000; 	20 	: 	71.200000; 	21 	: 	22.820000; 	
22 	: 	36.600000; 	23 	: 	23.420000; 	24 	: 	0.190000; 	25 	: 	10.410000; 	26 	: 	8.960000; 	

Origin 6 
1 	: 	3.740000; 	2 	: 	38.690000; 	3 	: 	28.410000; 	4 	: 	41.510000; 	5 	: 	25.870000; 	
7 	: 	0.560000; 	8 	: 	0.980000; 	9 	: 	3.900000; 	10 	: 	1.760000; 	11 	: 	0.770000; 	
12 	: 	6.580000; 	13 	: 	19.170000; 	14 	: 	36.770000; 	15 	: 	34.850000; 	16 	: 	14.940000; 	
17 	: 	24.690000; 	18 	: 	1.770000; 	19 	: 	0.380000; 	20 	: 	22.210000; 	21 	: 	25.010000; 	
22 	: 	16.080000; 	23 	: 	15.360000; 	24 	: 	0.090000; 	25 	: 	1.670000; 	26 	: 	6.770000; 	

Origin 7 
1 	: 	0.190000; 	2 	: 	5.290000; 	3 	: 	4.720000; 	4 	: 	7.820000; 	5 	: 	5.590000; 	
6 	: 	0.980000; 	8 	: 	9.160000; 	9 	: 	53.900000; 	10 	: 	14.170000; 	11 	: 	10.400000; 	
12 	: 	77.550000; 	13 	: 	2.200000; 	14 	: 	6.440000; 	15 	: 	5.870000; 	16 	: 	2.700000; 	
17 	: 	4.910000; 	19 	: 	2.610000; 	20 	: 	1.400000; 	21 	: 	3.220000; 	22 	: 	3.290000; 	
23 	: 	3.560000; 	24 	: 	0.720000; 	26 	: 	1.020000; 	

Origin 8 
1 	: 	0.200000; 	2 	: 	1.460000; 	3 	: 	1.400000; 	4 	: 	2.080000; 	5 	: 	1.610000; 	
6 	: 	0.630000; 	7 	: 	12.420000; 	9 	: 	23.430000; 	10 	: 	11.690000; 	11 	: 	8.210000; 	
12 	: 	44.020000; 	13 	: 	1.110000; 	14 	: 	2.690000; 	15 	: 	1.720000; 	16 	: 	1.660000; 	
17 	: 	3.060000; 	18 	: 	0.250000; 	19 	: 	0.570000; 	20 	: 	1.520000; 	21 	: 	1.550000; 	
22 	: 	1.800000; 	23 	: 	0.860000; 	24 	: 	1.500000; 	25 	: 	0.090000; 	26 	: 	0.450000; 	

Origin 9 
1 	: 	0.850000; 	2 	: 	5.020000; 	3 	: 	5.130000; 	4 	: 	7.080000; 	5 	: 	5.710000; 	
6 	: 	2.900000; 	7 	: 	63.910000; 	8 	: 	20.270000; 	10 	: 	54.590000; 	11 	: 	40.760000; 	
12 	: 	205.150000; 	13 	: 	2.580000; 	14 	: 	6.210000; 	15 	: 	6.060000; 	16 	: 	4.740000; 	
17 	: 	7.620000; 	18 	: 	1.300000; 	19 	: 	2.550000; 	20 	: 	5.560000; 	21 	: 	3.790000; 	
22 	: 	5.110000; 	23 	: 	2.860000; 	24 	: 	7.590000; 	25 	: 	0.430000; 	26 	: 	1.210000; 	

Origin 10 
1 	: 	0.360000; 	2 	: 	4.270000; 	3 	: 	3.840000; 	4 	: 	5.260000; 	5 	: 	4.480000; 	
6 	: 	1.320000; 	7 	: 	19.220000; 	8 	: 	11.040000; 	9 	: 	53.640000; 	11 	: 	17.420000; 	
12 	: 	117.920000; 	13 	: 	2.420000; 	14 	: 	5.000000; 	15 	: 	4.950000; 	16 	: 	3.460000; 	
17 	: 	5.830000; 	18 	: 	0.410000; 	19 	: 	1.950000; 	20 	: 	3.400000; 	21 	: 	3.330000; 	
22 	: 	3.400000; 	23 	: 	2.020000; 	24 	: 	2.030000; 	25 	: 	0.200000; 	26 	: 	0.770000; 	

Origin 11 
1 	: 	0.160000; 	2 	: 	1.420000; 	3 	: 	1.500000; 	4 	: 	2.320000; 	5 	: 	1.940000; 	
6 	: 	0.650000; 	7 	: 	12.340000; 	8 	: 	6.590000; 	9 	: 	38.510000; 	10 	: 	15.810000; 	
12 	: 	47.930000; 	13 	: 	0.860000; 	14 	: 	2.840000; 	15 	: 	1.920000; 	16 	: 	1.550000; 	
17 	: 	3.370000; 	18 	: 	0.240000; 	19 	: 	1.150000; 	20 	: 	0.980000; 	21 	: 	1.330000; 	
22 	: 	1.790000; 	23 	: 	1.140000; 	24 	: 	1.450000; 	25 	: 	0.050000; 	26 	: 	0.520000; 	

Origin 12 
1 	: 	1.030000; 	2 	: 	7.450000; 	3 	: 	8.240000; 	4 	: 	12.000000; 	5 	: 	10.840000; 	
6 	: 	4.540000; 	7 	: 	105.200000; 	8 	: 	45.120000; 	9 	: 	217.460000; 	10 	: 	127.520000; 	
11 	: 	57.050000; 	13 	: 	4.320000; 	14 	: 	13.700000; 	15 	: 	10.670000; 	16 	: 	9.170000; 	
17 	: 	18.000000; 	18 	: 	2.040000; 	19 	: 	6.110000; 	20 	: 	6.560000; 	21 	: 	6.760000; 	
22 	: 	10.070000; 	23 	: 	5.810000; 	24 	: 	12.570000; 	25 	: 	0.410000; 	26 	: 	2.610000; 	

Origin 13 
1 	: 	11.500000; 	2 	: 	20.790000; 	3 	: 	23.930000; 	4 	: 	39.210000; 	5 	: 	20.230000; 	
6 	: 	20.320000; 	7 	: 	1.610000; 	8 	: 	0.990000; 	9 	: 	1.810000; 	10 	: 	2.050000; 	
11 	: 	0.510000; 	12 	: 	3.830000; 	14 	: 	21.340000; 	15 	: 	25.960000; 	16 	: 	16.950000; 	
17 	: 	16.930000; 	18 	: 	7.380000; 	19 	: 	0.730000; 	20 	: 	41.240000; 	21 	: 	9.210000; 	
22 	: 	22.700000; 	23 	: 	14.430000; 	24 	: 	0.100000; 	25 	: 	7.260000; 	26 	: 	5.400000; 	

Origin 14 
1 	: 	20.390000; 	2 	: 	53.560000; 	3 	: 	59.980000; 	4 	: 	73.980000; 	5 	: 	39.570000; 	
6 	: 	38.700000; 	7 	: 	4.690000; 	8 	: 	2.370000; 	9 	: 	4.480000; 	10 	: 	4.160000; 	
11 	: 	1.710000; 	12 	: 	11.870000; 	13 	: 	21.330000; 	15 	: 	47.570000; 	16 	: 	35.460000; 	
17 	: 	38.760000; 	18 	: 	20.000000; 	19 	: 	1.750000; 	20 	: 	91.030000; 	21 	: 	28.110000; 	
22 	: 	33.490000; 	23 	: 	24.100000; 	24 	: 	0.210000; 	25 	: 	15.790000; 	26 	: 	11.140000; 	

Origin 15 
1 	: 	19.370000; 	2 	: 	45.390000; 	3 	: 	40.480000; 	4 	: 	82.210000; 	5 	: 	29.510000; 	
6 	: 	34.420000; 	7 	: 	3.380000; 	8 	: 	2.500000; 	9 	: 	5.700000; 	10 	: 	5.150000; 	
11 	: 	1.580000; 	12 	: 	12.940000; 	13 	: 	21.770000; 	14 	: 	41.670000; 	16 	: 	23.180000; 	
17 	: 	38.870000; 	18 	: 	14.620000; 	19 	: 	1.630000; 	20 	: 	86.500000; 	21 	: 	26.850000; 	
22 	: 	43.420000; 	23 	: 	26.540000; 	24 	: 	0.250000; 	25 	: 	14.570000; 	26 	: 	10.160000; 	

Origin 16 
1 	: 	11.390000; 	2 	: 	36.370000; 	3 	: 	26.670000; 	4 	: 	49.490000; 	5 	: 	22.800000; 	
6 	: 	15.790000; 	7 	: 	1.970000; 	8 	: 	1.590000; 	9 	: 	3.990000; 	10 	: 	3.130000; 	
11 	: 	1.040000; 	12 	: 	8.830000; 	13 	: 	16.870000; 	14 	: 	35.280000; 	15 	: 	26.040000; 	
17 	: 	28.620000; 	18 	: 	8.430000; 	19 	: 	0.950000; 	20 	: 	54.740000; 	21 	: 	19.700000; 	
22 	: 	25.450000; 	23 	: 	21.320000; 	24 	: 	0.140000; 	25 	: 	7.760000; 	26 	: 	7.490000; 	

Origin 17 
1 	: 	19.960000; 	2 	: 	43.240000; 	3 	: 	49.510000; 	4 	: 	80.310000; 	5 	: 	31.380000; 	
6 	: 	25.810000; 	7 	: 	3.580000; 	8 	: 	2.730000; 	9 	: 	5.550000; 	10 	: 	4.900000; 	
11 	: 	2.040000; 	12 	: 	15.840000; 	13 	: 	16.940000; 	14 	: 	38.770000; 	15 	: 	42.410000; 	
16 	: 	28.760000; 	18 	: 	10.770000; 	19 	: 	1.410000; 	20 	: 	73.220000; 	21 	: 	23.520000; 	
22 	: 	32.710000; 	23 	: 	21.440000; 	24 	: 	0.220000; 	25 	: 	11.360000; 	26 	: 	11.870000; 	

Origin 18 
1 	: 	0.460000; 	2 	: 	13.840000; 	3 	: 	11.660000; 	4 	: 	19.200000; 	5 	: 	13.220000; 	
6 	: 	1.770000; 	8 	: 	0.370000; 	9 	: 	1.750000; 	10 	: 	0.590000; 	11 	: 	0.330000; 	
12 	: 	2.980000; 	13 	: 	8.160000; 	14 	: 	22.110000; 	15 	: 	14.500000; 	16 	: 	9.320000; 	
17 	: 	11.920000; 	19 	: 	0.080000; 	20 	: 	5.450000; 	21 	: 	11.490000; 	22 	: 	9.290000; 	
23 	: 	6.370000; 	24 	: 	0.030000; 	26 	: 	2.760000; 	

Origin 19 
1 	: 	0.060000; 	2 	: 	0.130000; 	3 	: 	0.150000; 	4 	: 	0.220000; 	5 	: 	0.100000; 	
6 	: 	0.120000; 	7 	: 	2.940000; 	8 	: 	1.800000; 	9 	: 	3.020000; 	10 	: 	4.850000; 	
11 	: 	1.400000; 	12 	: 	20.250000; 	13 	: 	0.730000; 	14 	: 	1.760000; 	15 	: 	0.120000; 	
16 	: 	0.940000; 	17 	: 	1.420000; 	18 	: 	0.060000; 	20 	: 	0.730000; 	21 	: 	1.010000; 	
22 	: 	1.020000; 	23 	: 	0.080000; 	24 	: 	0.150000; 	25 	: 	0.030000; 	26 	: 	0.270000; 	

Origin 20 
1 	: 	10.380000; 	2 	: 	66.150000; 	3 	: 	69.000000; 	4 	: 	124.170000; 	5 	: 	72.350000; 	
6 	: 	22.750000; 	7 	: 	1.010000; 	8 	: 	1.780000; 	9 	: 	6.870000; 	10 	: 	3.800000; 	
11 	: 	0.950000; 	12 	: 	7.980000; 	13 	: 	41.010000; 	14 	: 	90.550000; 	15 	: 	87.750000; 	
16 	: 	54.550000; 	17 	: 	72.830000; 	18 	: 	4.920000; 	19 	: 	0.830000; 	21 	: 	58.910000; 	
22 	: 	54.580000; 	23 	: 	38.300000; 	24 	: 	0.210000; 	25 	: 	5.650000; 	26 	: 	11.890000; 	

Origin 21 
1 	: 	13.260000; 	2 	: 	27.940000; 	3 	: 	26.720000; 	4 	: 	41.350000; 	5 	: 	26.730000; 	
6 	: 	26.400000; 	7 	: 	2.350000; 	8 	: 	1.380000; 	9 	: 	2.740000; 	10 	: 	2.770000; 	
11 	: 	0.810000; 	12 	: 	5.900000; 	13 	: 	9.220000; 	14 	: 	28.140000; 	15 	: 	31.100000; 	
16 	: 	19.810000; 	17 	: 	23.530000; 	18 	: 	10.390000; 	19 	: 	1.010000; 	20 	: 	59.230000; 	
22 	: 	27.890000; 	23 	: 	19.830000; 	24 	: 	0.130000; 	25 	: 	10.960000; 	26 	: 	7.770000; 	

Origin 22 
1 	: 	12.390000; 	2 	: 	51.590000; 	3 	: 	45.060000; 	4 	: 	52.200000; 	5 	: 	41.170000; 	
6 	: 	17.020000; 	7 	: 	2.400000; 	8 	: 	1.760000; 	9 	: 	4.610000; 	10 	: 	3.140000; 	
11 	: 	1.270000; 	12 	: 	9.960000; 	13 	: 	22.570000; 	14 	: 	33.310000; 	15 	: 	48.570000; 	
16 	: 	25.420000; 	17 	: 	32.540000; 	18 	: 	8.410000; 	19 	: 	1.050000; 	20 	: 	54.750000; 	
21 	: 	27.720000; 	23 	: 	19.240000; 	24 	: 	0.150000; 	25 	: 	7.970000; 	26 	: 	9.830000; 	

Origin 23 
1 	: 	10.910000; 	2 	: 	29.210000; 	3 	: 	30.820000; 	4 	: 	46.890000; 	5 	: 	24.400000; 	
6 	: 	15.320000; 	7 	: 	2.040000; 	8 	: 	1.310000; 	9 	: 	2.780000; 	10 	: 	2.220000; 	
11 	: 	0.950000; 	12 	: 	7.540000; 	13 	: 	11.870000; 	14 	: 	20.520000; 	15 	: 	27.810000; 	
16 	: 	18.590000; 	17 	: 	18.950000; 	18 	: 	6.430000; 	19 	: 	0.830000; 	20 	: 	37.350000; 	
21 	: 	16.690000; 	22 	: 	16.880000; 	24 	: 	0.100000; 	25 	: 	5.800000; 	26 	: 	4.960000; 	

Origin 24 
1 	: 	0.030000; 	2 	: 	0.280000; 	3 	: 	0.240000; 	4 	: 	0.340000; 	5 	: 	0.230000; 	
6 	: 	0.080000; 	7 	: 	0.940000; 	8 	: 	2.060000; 	9 	: 	3.510000; 	10 	: 	2.810000; 	
11 	: 	0.830000; 	12 	: 	17.550000; 	13 	: 	0.780000; 	14 	: 	1.560000; 	15 	: 	0.310000; 	
16 	: 	0.960000; 	17 	: 	1.720000; 	18 	: 	0.010000; 	19 	: 	0.480000; 	20 	: 	0.720000; 	
21 	: 	1.060000; 	22 	: 	0.920000; 	23 	: 	0.120000; 	25 	: 	0.010000; 	26 	: 	0.210000; 	

Origin 25 
1 	: 	0.470000; 	2 	: 	14.140000; 	3 	: 	11.990000; 	4 	: 	17.610000; 	5 	: 	9.810000; 	
6 	: 	1.580000; 	8 	: 	0.140000; 	9 	: 	0.650000; 	10 	: 	0.330000; 	11 	: 	0.080000; 	
12 	: 	0.670000; 	13 	: 	7.570000; 	14 	: 	16.460000; 	15 	: 	13.750000; 	16 	: 	8.090000; 	
17 	: 	11.830000; 	19 	: 	0.050000; 	20 	: 	5.890000; 	21 	: 	11.410000; 	22 	: 	8.310000; 	
23 	: 	5.480000; 	24 	: 	0.020000; 	26 	: 	1.830000; 	

Origin 26 
1 	: 	3.770000; 	2 	: 	11.120000; 	3 	: 	11.630000; 	4 	: 	20.560000; 	5 	: 	9.530000; 	
6 	: 	7.040000; 	7 	: 	0.740000; 	8 	: 	0.440000; 	9 	: 	1.110000; 	10 	: 	0.710000; 	
11 	: 	0.370000; 	12 	: 	2.570000; 	13 	: 	5.360000; 	14 	: 	11.080000; 	15 	: 	10.750000; 	
16 	: 	7.490000; 	17 	: 	11.800000; 	18 	: 	2.490000; 	19 	: 	0.280000; 	20 	: 	11.960000; 	
21 	: 	7.740000; 	22 	: 	9.840000; 	23 	: 	5.380000; 	24 	: 	0.030000; 	25 	: 	1.750000; 	
